
  EPA STORM WATER MANAGEMENT MODEL - VERSION 5.1 (Build 5.1.013)
  --------------------------------------------------------------

  骞虫睙鏂板煄 
  
  
  *********************
  Rainfall File Summary
  *********************
  Station    First        Last         Recording   Periods    Periods    Periods
  ID         Date         Date         Frequency  w/Precip    Missing    Malfunc.
  -------------------------------------------------------------------------------
  1          01/01/2018   01/01/2018       5 min        24          0          0

  
  *********************************************************
  NOTE: The summary statistics displayed in this report are
  based on results found at every computational time step,  
  not just on results from each reporting time step.
  *********************************************************
  
  ****************
  Analysis Options
  ****************
  Flow Units ............... CMS
  Process Models:
    Rainfall/Runoff ........ YES
    RDII ................... NO
    Snowmelt ............... NO
    Groundwater ............ NO
    Flow Routing ........... YES
    Ponding Allowed ........ YES
    Water Quality .......... YES
  Infiltration Method ...... HORTON
  Flow Routing Method ...... DYNWAVE
  Surcharge Method ......... EXTRAN
  Starting Date ............ 01/01/2018 00:00:00
  Ending Date .............. 01/01/2018 02:00:00
  Antecedent Dry Days ...... 14.0
  Report Time Step ......... 00:05:00
  Wet Time Step ............ 00:05:00
  Dry Time Step ............ 06:00:00
  Routing Time Step ........ 30.00 sec
  Variable Time Step ....... YES
  Maximum Trials ........... 10
  Number of Threads ........ 4
  Head Tolerance ........... 0.001500 m
  
  
  **************************        Volume         Depth
  Runoff Quantity Continuity     hectare-m            mm
  **************************     ---------       -------
  Initial LID Storage ......         2.375         4.752
  Total Precipitation ......         4.500         9.004
  Evaporation Loss .........         0.000         0.000
  Infiltration Loss ........         1.408         2.817
  Surface Runoff ...........         0.165         0.329
  Final Storage ............         5.233        10.472
  Continuity Error (%) .....         1.009
  
  
  **************************           COD            TN         NH4-N            TP
  Runoff Quality Continuity             kg            kg            kg            kg
  **************************    ----------    ----------    ----------    ----------
  Initial Buildup ..........     30322.891      2148.702       636.762       242.652
  Surface Buildup ..........         0.759         0.644         0.007         0.022
  Wet Deposition ...........         0.000         0.000         0.000         0.000
  Sweeping Removal .........         0.000         0.000         0.000         0.000
  Infiltration Loss ........        42.036         2.651         0.536         0.176
  BMP Removal ..............      3947.382       139.064        34.667        20.606
  Surface Runoff ...........       388.590        13.422         4.539         3.074
  Remaining Buildup ........     25857.306      1990.798       596.200       218.273
  Continuity Error (%) .....         0.291         0.159         0.130         0.225
  
  
  **************************        Volume        Volume
  Flow Routing Continuity        hectare-m      10^6 ltr
  **************************     ---------     ---------
  Dry Weather Inflow .......         0.000         0.000
  Wet Weather Inflow .......         0.161         1.610
  Groundwater Inflow .......         0.000         0.000
  RDII Inflow ..............         0.000         0.000
  External Inflow ..........         0.000         0.000
  External Outflow .........         0.128         1.277
  Flooding Loss ............         0.000         0.000
  Evaporation Loss .........         0.000         0.000
  Exfiltration Loss ........         0.000         0.000
  Initial Stored Volume ....         0.041         0.413
  Final Stored Volume ......         0.074         0.741
  Continuity Error (%) .....         0.279
  
  
  **************************           COD            TN         NH4-N            TP
  Quality Routing Continuity            kg            kg            kg            kg
  **************************    ----------    ----------    ----------    ----------
  Dry Weather Inflow .......         0.000         0.000         0.000         0.000
  Wet Weather Inflow .......       381.600        13.104         4.466         3.016
  Groundwater Inflow .......         0.000         0.000         0.000         0.000
  RDII Inflow ..............         0.000         0.000         0.000         0.000
  External Inflow ..........         0.000         0.000         0.000         0.000
  External Outflow .........       250.556         7.976         3.080         2.098
  Flooding Loss ............         0.000         0.000         0.000         0.000
  Exfiltration Loss ........         0.000         0.000         0.000         0.000
  Mass Reacted .............         0.000         0.000         0.000         0.000
  Initial Stored Mass ......         0.000         0.000         0.000         0.000
  Final Stored Mass ........       119.909         4.693         1.191         0.793
  Continuity Error (%) .....         2.918         3.321         4.362         4.116
  
  
  *************************
  Highest Continuity Errors
  *************************
  Node Y78 (100.00%)
  Node Y254 (100.00%)
  Node Y263 (100.00%)
  Node Y268 (100.00%)
  Node Y313 (100.00%)
  
  
  ***************************
  Time-Step Critical Elements
  ***************************
  Link L443 (60.09%)
  Link L466 (23.58%)
  Link L350 (3.99%)
  Link L390 (3.99%)
  Link L93 (1.70%)
  
  
  ********************************
  Highest Flow Instability Indexes
  ********************************
  Link L258 (7)
  Link L416 (7)
  Link L350 (5)
  Link L443 (5)
  Link L312 (5)
  
  
  *************************
  Routing Time Step Summary
  *************************
  Minimum Time Step           :     0.21 sec
  Average Time Step           :     5.32 sec
  Maximum Time Step           :    30.00 sec
  Percent in Steady State     :    -0.00
  Average Iterations per Step :     2.00
  Percent Not Converging      :     0.00
  
  
  ***************************
  Subcatchment Runoff Summary
  ***************************
  
  ------------------------------------------------------------------------------------------------------------------------------
                            Total      Total      Total      Total     Imperv       Perv      Total       Total     Peak  Runoff
                           Precip      Runon       Evap      Infil     Runoff     Runoff     Runoff      Runoff   Runoff   Coeff
  Subcatchment                 mm         mm         mm         mm         mm         mm         mm    10^6 ltr      CMS
  ------------------------------------------------------------------------------------------------------------------------------
  RD01_1_rdsq_out_no         9.00       0.00       0.00       0.00       8.80       0.00       8.80        0.01     0.01   0.978
  RD01_1_rdsq_out_with_PP       9.00     179.69       0.00       0.57       0.00       0.00      51.88        0.00     0.00   0.275
  RD01_1_rdsq_out_with_VS       9.00       9.22       0.00       9.87       0.00       0.00       0.92        0.00     0.00   0.050
  RD01_10_rdsq_out_no        9.00       0.00       0.00       0.00       8.76       0.00       8.76        0.03     0.01   0.973
  RD01_10_rdsq_out_with_PP       9.00     177.16       0.00       0.00     177.24       0.00     177.24        0.03     0.01   0.952
  RD01_10_rdsq_out_with_VS       9.00      32.16       0.00      10.17       0.00      32.15      32.40        0.02     0.01   0.787
  RD01_11_rdsq_out_no        9.00       0.00       0.00       0.00       8.78       0.00       8.78        0.02     0.01   0.975
  RD01_11_rdsq_out_with_PP       9.00     178.18       0.00       0.57       0.00       0.00      50.53        0.01     0.00   0.270
  RD01_11_rdsq_out_with_VS       9.00       9.02       0.00       9.82       0.00       9.01       9.02        0.01     0.00   0.501
  RD01_12_rdsq_out_no        9.00       0.00       0.00       0.00       8.75       0.00       8.75        0.04     0.02   0.972
  RD01_12_rdsq_out_with_PP       9.00     177.13       0.00       0.00     177.20       0.00     177.20        0.04     0.02   0.952
  RD01_12_rdsq_out_with_VS       9.00      32.10       0.00      10.12       0.00       0.00       3.63        0.00     0.00   0.088
  RD01_13_rdsq_out_no        9.00       0.00       0.00       0.00       8.76       0.00       8.76        0.04     0.02   0.973
  RD01_13_rdsq_out_with_PP       9.00     177.82       0.00       0.57       0.00       0.00      50.24        0.01     0.01   0.269
  RD01_13_rdsq_out_with_VS       9.00       8.97       0.00       9.87       0.00       0.00       0.24        0.00     0.00   0.013
  RD01_14_rdsq_out_no        9.00       0.00       0.00       0.00       8.78       0.00       8.78        0.02     0.01   0.975
  RD01_14_rdsq_out_with_PP       9.00     177.26       0.00       0.00     177.35       0.00     177.35        0.02     0.01   0.952
  RD01_14_rdsq_out_with_VS       9.00      32.23       0.00      10.13       0.00       0.00       5.73        0.00     0.00   0.139
  RD01_15_rdsq_out_no        9.00       0.00       0.00       0.00       8.79       0.00       8.79        0.02     0.01   0.976
  RD01_15_rdsq_out_with_PP       9.00     177.13       0.00       0.00     177.25       0.00     177.25        0.02     0.01   0.952
  RD01_15_rdsq_out_with_VS       9.00      32.24       0.00      10.17       0.00      32.24      32.63        0.02     0.01   0.791
  RD01_16_rdsq_out_no        9.00       0.00       0.00       0.00       8.80       0.00       8.80        0.02     0.01   0.977
  RD01_16_rdsq_out_with_PP       9.00     178.04       0.00       0.00     178.15       0.00     178.15        0.02     0.01   0.952
  RD01_16_rdsq_out_with_VS       9.00      32.26       0.00      10.17       0.00      32.26      32.64        0.02     0.01   0.791
  RD01_2_rdsq_out_no         9.00       0.00       0.00       0.00       8.80       0.00       8.80        0.01     0.01   0.977
  RD01_2_rdsq_out_with_PP       9.00     177.86       0.00       0.00     178.04       0.00     178.04        0.01     0.01   0.953
  RD01_2_rdsq_out_with_VS       9.00      32.26       0.00      10.17       0.00      32.25      32.82        0.01     0.01   0.795
  RD01_3_rdsq_out_no         9.00       0.00       0.00       0.00       8.76       0.00       8.76        0.05     0.03   0.973
  RD01_3_rdsq_out_with_PP       9.00     177.42       0.00       0.57       0.00       0.00      49.87        0.01     0.01   0.268
  RD01_3_rdsq_out_with_VS       9.00       8.91       0.00       9.87       0.00       0.00       0.17        0.00     0.00   0.010
  RD01_4_rdsq_out_no         9.00       0.00       0.00       0.00       8.75       0.00       8.75        0.06     0.03   0.972
  RD01_4_rdsq_out_with_PP       9.00     177.01       0.00       0.00     177.06       0.00     177.06        0.06     0.03   0.952
  RD01_4_rdsq_out_with_VS       9.00      32.09       0.00      10.12       0.00       0.00       2.40        0.00     0.00   0.058
  RD01_5_rdsq_out_no         9.00       0.00       0.00       0.00       8.79       0.00       8.79        0.02     0.01   0.976
  RD01_5_rdsq_out_with_PP       9.00     178.47       0.00       0.57       0.00       0.00      50.79        0.01     0.00   0.271
  RD01_5_rdsq_out_with_VS       9.00       9.06       0.00       9.82       0.00       9.06       9.07        0.01     0.00   0.502
  RD01_6_rdsq_out_no         9.00       0.00       0.00       0.00       8.78       0.00       8.78        0.02     0.01   0.975
  RD01_6_rdsq_out_with_PP       9.00     178.01       0.00       0.57       0.00       0.00      50.37        0.01     0.00   0.269
  RD01_6_rdsq_out_with_VS       9.00       9.01       0.00       9.87       0.00       0.00       0.38        0.00     0.00   0.021
  RD01_7_rdsq_out_no         9.00       0.00       0.00       0.00       8.75       0.00       8.75        0.02     0.01   0.972
  RD01_7_rdsq_out_with_PP       9.00     177.01       0.00       0.00     177.10       0.00     177.10        0.02     0.01   0.952
  RD01_7_rdsq_out_with_VS       9.00      32.10       0.00      10.17       0.00      32.09      32.39        0.02     0.01   0.788
  RD01_8_rdsq_out_no         9.00       0.00       0.00       0.00       8.76       0.00       8.76        0.02     0.01   0.973
  RD01_8_rdsq_out_with_PP       9.00     178.02       0.00       0.57       0.00       0.00      50.42        0.01     0.00   0.270
  RD01_8_rdsq_out_with_VS       9.00       8.99       0.00       9.87       0.00       0.00       0.41        0.00     0.00   0.023
  RD01_9_rdsq_out_no         9.00       0.00       0.00       0.00       8.77       0.00       8.77        0.03     0.01   0.974
  RD01_9_rdsq_out_with_PP       9.00     177.67       0.00       0.57       0.00       0.00      50.08        0.01     0.01   0.268
  RD01_9_rdsq_out_with_VS       9.00       8.95       0.00       9.87       0.00       0.00       0.33        0.00     0.00   0.018
  RD02_1_rdsq_out_no         9.00       0.00       0.00       0.00       8.77       0.00       8.77        0.04     0.02   0.974
  RD02_1_rdsq_out_with_PP       9.00     177.38       0.00       0.00     177.44       0.00     177.44        0.04     0.02   0.952
  RD02_1_rdsq_out_with_VS       9.00      32.16       0.00      10.12       0.00       0.00       3.42        0.00     0.00   0.083
  RD02_10_rdsq_out_no        9.00       0.00       0.00       0.00       8.77       0.00       8.77        0.05     0.03   0.974
  RD02_10_rdsq_out_with_PP       9.00     177.41       0.00       0.00     177.45       0.00     177.45        0.05     0.03   0.952
  RD02_10_rdsq_out_with_VS       9.00      32.16       0.00      10.12       0.00       0.00       2.62        0.00     0.00   0.064
  RD02_11_rdsq_out_no        9.00       0.00       0.00       0.00       8.76       0.00       8.76        0.03     0.02   0.973
  RD02_11_rdsq_out_with_PP       9.00     177.47       0.00       0.00     177.53       0.00     177.53        0.03     0.02   0.952
  RD02_11_rdsq_out_with_VS       9.00      32.14       0.00      10.12       0.00       0.00       3.90        0.00     0.00   0.095
  RD02_12_rdsq_out_no        9.00       0.00       0.00       0.00       8.77       0.00       8.77        0.04     0.02   0.974
  RD02_12_rdsq_out_with_PP       9.00     177.96       0.00       0.57       0.00       0.00      50.36        0.01     0.01   0.269
  RD02_12_rdsq_out_with_VS       9.00       8.99       0.00       9.87       0.00       0.00       0.25        0.00     0.00   0.014
  RD02_13_rdsq_out_no        9.00       0.00       0.00       0.00       8.78       0.00       8.78        0.01     0.01   0.976
  RD02_13_rdsq_out_with_PP       9.00     177.23       0.00       0.00     177.37       0.00     177.37        0.01     0.01   0.952
  RD02_13_rdsq_out_with_VS       9.00      32.29       0.00      10.13       0.00       0.00       8.14        0.00     0.00   0.197
  RD02_14_rdsq_out_no        9.00       0.00       0.00       0.00       8.78       0.00       8.78        0.02     0.01   0.975
  RD02_14_rdsq_out_with_PP       9.00     178.30       0.00       0.57       0.00       0.00      50.65        0.00     0.00   0.270
  RD02_14_rdsq_out_with_VS       9.00       9.04       0.00       9.87       0.00       0.00       0.53        0.00     0.00   0.029
  RD02_15_rdsq_out_no        9.00       0.00       0.00       0.00       8.80       0.00       8.80        0.02     0.01   0.977
  RD02_15_rdsq_out_with_PP       9.00     178.52       0.00       0.57       0.00       0.00      50.81        0.01     0.00   0.271
  RD02_15_rdsq_out_with_VS       9.00       9.08       0.00       9.87       0.00       0.00       0.43        0.00     0.00   0.024
  RD02_16_rdsq_out_no        9.00       0.00       0.00       0.00       8.79       0.00       8.79        0.02     0.01   0.977
  RD02_16_rdsq_out_with_PP       9.00     178.71       0.00       0.57       0.00       0.00      50.99        0.01     0.00   0.272
  RD02_16_rdsq_out_with_VS       9.00       9.10       0.00       9.87       0.00       0.00       0.40        0.00     0.00   0.022
  RD02_17_rdsq_out_no        9.00       0.00       0.00       0.00       8.78       0.00       8.78        0.03     0.02   0.975
  RD02_17_rdsq_out_with_PP       9.00     178.07       0.00       0.57       0.00       0.00      50.42        0.01     0.01   0.270
  RD02_17_rdsq_out_with_VS       9.00       9.01       0.00       9.82       0.00       9.01       9.01        0.01     0.01   0.500
  RD02_18_rdsq_out_no        9.00       0.00       0.00       0.00       8.81       0.00       8.81        0.01     0.01   0.978
  RD02_18_rdsq_out_with_PP       9.00     178.01       0.00       0.00     178.14       0.00     178.14        0.01     0.01   0.953
  RD02_18_rdsq_out_with_VS       9.00      32.37       0.00      10.13       0.00       0.00       8.34        0.00     0.00   0.202
  RD02_19_rdsq_out_no        9.00       0.00       0.00       0.00       8.78       0.00       8.78        0.02     0.01   0.975
  RD02_19_rdsq_out_with_PP       9.00     177.64       0.00       0.00     177.74       0.00     177.74        0.02     0.01   0.952
  RD02_19_rdsq_out_with_VS       9.00      32.24       0.00      10.13       0.00       0.00       6.16        0.00     0.00   0.149
  RD02_2_rdsq_out_no         9.00       0.00       0.00       0.00       8.76       0.00       8.76        0.04     0.02   0.973
  RD02_2_rdsq_out_with_PP       9.00     177.48       0.00       0.57       0.00       0.00      49.92        0.01     0.01   0.268
  RD02_2_rdsq_out_with_VS       9.00       8.93       0.00       9.87       0.00       0.00       0.20        0.00     0.00   0.011
  RD02_20_rdsq_out_no        9.00       0.00       0.00       0.00       8.78       0.00       8.78        0.02     0.01   0.975
  RD02_20_rdsq_out_with_PP       9.00     177.12       0.00       0.00     177.23       0.00     177.23        0.02     0.01   0.952
  RD02_20_rdsq_out_with_VS       9.00      32.26       0.00      10.13       0.00       0.00       6.42        0.00     0.00   0.156
  RD02_21_rdsq_out_no        9.00       0.00       0.00       0.00       8.76       0.00       8.76        0.03     0.01   0.973
  RD02_21_rdsq_out_with_PP       9.00     177.77       0.00       0.57       0.00       0.00      50.18        0.01     0.01   0.269
  RD02_21_rdsq_out_with_VS       9.00       8.96       0.00       9.87       0.00       0.00       0.34        0.00     0.00   0.019
  RD02_22_rdsq_out_no        9.00       0.00       0.00       0.00       8.76       0.00       8.76        0.03     0.01   0.973
  RD02_22_rdsq_out_with_PP       9.00     177.53       0.00       0.57       0.00       0.00      49.97        0.01     0.01   0.268
  RD02_22_rdsq_out_with_VS       9.00       8.93       0.00       9.87       0.00       0.00       0.31        0.00     0.00   0.017
  RD02_3_rdsq_out_no         9.00       0.00       0.00       0.00       8.77       0.00       8.77        0.03     0.02   0.974
  RD02_3_rdsq_out_with_PP       9.00     177.36       0.00       0.00     177.44       0.00     177.44        0.03     0.02   0.952
  RD02_3_rdsq_out_with_VS       9.00      32.18       0.00      10.13       0.00       0.00       4.07        0.00     0.00   0.099
  RD02_4_rdsq_out_no         9.00       0.00       0.00       0.00       8.76       0.00       8.76        0.03     0.02   0.973
  RD02_4_rdsq_out_with_PP       9.00     177.54       0.00       0.57       0.00       0.00      49.98        0.01     0.01   0.268
  RD02_4_rdsq_out_with_VS       9.00       8.94       0.00       9.87       0.00       0.00       0.25        0.00     0.00   0.014
  RD02_5_rdsq_out_no         9.00       0.00       0.00       0.00       8.78       0.00       8.78        0.02     0.01   0.975
  RD02_5_rdsq_out_with_PP       9.00     177.46       0.00       0.00     177.54       0.00     177.54        0.02     0.01   0.952
  RD02_5_rdsq_out_with_VS       9.00      32.23       0.00      10.13       0.00       0.00       5.14        0.00     0.00   0.125
  RD02_6_rdsq_out_no         9.00       0.00       0.00       0.00       8.83       0.00       8.83        0.03     0.01   0.980
  RD02_6_rdsq_out_with_PP       9.00     178.92       0.00       0.57       0.00       0.00      51.14        0.01     0.01   0.272
  RD02_6_rdsq_out_with_VS       9.00       9.15       0.00       9.82       0.00       9.14       9.15        0.01     0.01   0.504
  RD02_7_rdsq_out_no         9.00       0.00       0.00       0.00       8.80       0.00       8.80        0.02     0.01   0.977
  RD02_7_rdsq_out_with_PP       9.00     177.97       0.00       0.00     178.10       0.00     178.10        0.02     0.01   0.953
  RD02_7_rdsq_out_with_VS       9.00      32.29       0.00      10.17       0.00      32.29      32.67        0.02     0.01   0.791
  RD02_8_rdsq_out_no         9.00       0.00       0.00       0.00       8.79       0.00       8.79        0.02     0.01   0.976
  RD02_8_rdsq_out_with_PP       9.00     178.07       0.00       0.57       0.00       0.00      50.41        0.01     0.00   0.269
  RD02_8_rdsq_out_with_VS       9.00       9.02       0.00       9.87       0.00       0.00       0.37        0.00     0.00   0.021
  RD02_9_rdsq_out_no         9.00       0.00       0.00       0.00       8.76       0.00       8.76        0.05     0.03   0.973
  RD02_9_rdsq_out_with_PP       9.00     177.55       0.00       0.57       0.00       0.00      49.99        0.01     0.01   0.268
  RD02_9_rdsq_out_with_VS       9.00       8.93       0.00       9.87       0.00       0.00       0.17        0.00     0.00   0.009
  RD03_1_rdsq_out_no         9.00       0.00       0.00       0.00       8.77       0.00       8.77        0.05     0.03   0.973
  RD03_1_rdsq_out_with_PP       9.00     177.21       0.00       0.00     177.26       0.00     177.26        0.05     0.03   0.952
  RD03_1_rdsq_out_with_VS       9.00      32.15       0.00      10.12       0.00       0.00       2.90        0.00     0.00   0.070
  RD03_10_rdsq_out_no        9.00       0.00       0.00       0.00       8.75       0.00       8.75        0.04     0.02   0.972
  RD03_10_rdsq_out_with_PP       9.00     177.65       0.00       0.57       0.00       0.00      50.10        0.01     0.01   0.268
  RD03_10_rdsq_out_with_VS       9.00       8.94       0.00       9.87       0.00       0.00       0.22        0.00     0.00   0.012
  RD03_2_rdsq_out_no         9.00       0.00       0.00       0.00       8.76       0.00       8.76        0.05     0.03   0.973
  RD03_2_rdsq_out_with_PP       9.00     177.45       0.00       0.00     177.49       0.00     177.49        0.05     0.03   0.952
  RD03_2_rdsq_out_with_VS       9.00      32.14       0.00      10.13       0.00       0.00       2.54        0.00     0.00   0.062
  RD03_3_rdsq_out_no         9.00       0.00       0.00       0.00       8.73       0.00       8.73        0.05     0.03   0.969
  RD03_3_rdsq_out_with_PP       9.00     176.47       0.00       0.00     176.52       0.00     176.52        0.05     0.03   0.952
  RD03_3_rdsq_out_with_VS       9.00      32.01       0.00      10.13       0.00       0.00       2.60        0.00     0.00   0.063
  RD03_4_rdsq_out_no         9.00       0.00       0.00       0.00       8.73       0.00       8.73        0.05     0.03   0.969
  RD03_4_rdsq_out_with_PP       9.00     176.47       0.00       0.00     176.52       0.00     176.52        0.05     0.03   0.952
  RD03_4_rdsq_out_with_VS       9.00      31.99       0.00      10.12       0.00       0.00       2.59        0.00     0.00   0.063
  RD03_5_rdsq_out_no         9.00       0.00       0.00       0.00       8.77       0.00       8.77        0.03     0.02   0.975
  RD03_5_rdsq_out_with_PP       9.00     177.82       0.00       0.57       0.00       0.00      50.20        0.01     0.01   0.269
  RD03_5_rdsq_out_with_VS       9.00       8.98       0.00       9.87       0.00       0.00       0.26        0.00     0.00   0.015
  RD03_6_rdsq_out_no         9.00       0.00       0.00       0.00       8.78       0.00       8.78        0.04     0.02   0.975
  RD03_6_rdsq_out_with_PP       9.00     177.77       0.00       0.00     177.84       0.00     177.84        0.04     0.02   0.952
  RD03_6_rdsq_out_with_VS       9.00      32.20       0.00      10.12       0.00       0.00       3.61        0.00     0.00   0.088
  RD03_7_rdsq_out_no         9.00       0.00       0.00       0.00       8.78       0.00       8.78        0.04     0.02   0.975
  RD03_7_rdsq_out_with_PP       9.00     177.98       0.00       0.57       0.00       0.00      50.35        0.01     0.01   0.269
  RD03_7_rdsq_out_with_VS       9.00       9.00       0.00       9.87       0.00       0.00       0.25        0.00     0.00   0.014
  RD03_8_rdsq_out_no         9.00       0.00       0.00       0.00       8.77       0.00       8.77        0.04     0.02   0.974
  RD03_8_rdsq_out_with_PP       9.00     177.55       0.00       0.00     177.61       0.00     177.61        0.04     0.02   0.952
  RD03_8_rdsq_out_with_VS       9.00      32.19       0.00      10.13       0.00       0.00       3.36        0.00     0.00   0.082
  RD03_9_rdsq_out_no         9.00       0.00       0.00       0.00       8.77       0.00       8.77        0.04     0.02   0.974
  RD03_9_rdsq_out_with_PP       9.00     177.30       0.00       0.00     177.36       0.00     177.36        0.04     0.02   0.952
  RD03_9_rdsq_out_with_VS       9.00      32.17       0.00      10.13       0.00       0.00       3.50        0.00     0.00   0.085
  RD04_1_rdsq_out_no         9.00       0.00       0.00       0.00       8.80       0.00       8.80        0.02     0.01   0.978
  RD04_1_rdsq_out_with_PP       9.00     177.80       0.00       0.00     177.88       0.00     177.88        0.02     0.01   0.952
  RD04_1_rdsq_out_with_VS       9.00      32.33       0.00      10.13       0.00       0.00       5.51        0.00     0.00   0.133
  RD04_10_rdsq_out_no        9.00       0.00       0.00       0.00       8.78       0.00       8.78        0.03     0.02   0.975
  RD04_10_rdsq_out_with_PP       9.00     178.31       0.00       0.57       0.00       0.00      50.65        0.01     0.01   0.270
  RD04_10_rdsq_out_with_VS       9.00       9.04       0.00       9.82       0.00       9.03       9.04        0.01     0.01   0.501
  RD04_11_rdsq_out_no        9.00       0.00       0.00       0.00       8.78       0.00       8.78        0.05     0.03   0.975
  RD04_11_rdsq_out_with_PP       9.00     178.02       0.00       0.57       0.00       0.00      50.38        0.01     0.01   0.269
  RD04_11_rdsq_out_with_VS       9.00       9.00       0.00       9.87       0.00       0.00       0.18        0.00     0.00   0.010
  RD04_12_rdsq_out_no        9.00       0.00       0.00       0.00       8.76       0.00       8.76        0.05     0.03   0.973
  RD04_12_rdsq_out_with_PP       9.00     177.53       0.00       0.57       0.00       0.00      49.97        0.01     0.01   0.268
  RD04_12_rdsq_out_with_VS       9.00       8.93       0.00       9.87       0.00       0.00       0.16        0.00     0.00   0.009
  RD04_2_rdsq_out_no         9.00       0.00       0.00       0.00       8.78       0.00       8.78        0.04     0.02   0.975
  RD04_2_rdsq_out_with_PP       9.00     177.78       0.00       0.57       0.00       0.00      50.17        0.01     0.01   0.269
  RD04_2_rdsq_out_with_VS       9.00       8.97       0.00       9.86       0.00       0.00       0.21        0.00     0.00   0.011
  RD04_3_rdsq_out_no         9.00       0.00       0.00       0.00       8.76       0.00       8.76        0.04     0.02   0.973
  RD04_3_rdsq_out_with_PP       9.00     177.17       0.00       0.00     177.23       0.00     177.23        0.04     0.02   0.952
  RD04_3_rdsq_out_with_VS       9.00      32.14       0.00      10.13       0.00       0.00       3.17        0.00     0.00   0.077
  RD04_4_rdsq_out_no         9.00       0.00       0.00       0.00       8.76       0.00       8.76        0.04     0.02   0.973
  RD04_4_rdsq_out_with_PP       9.00     177.52       0.00       0.57       0.00       0.00      49.97        0.01     0.01   0.268
  RD04_4_rdsq_out_with_VS       9.00       8.93       0.00       9.87       0.00       0.00       0.21        0.00     0.00   0.012
  RD04_5_rdsq_out_no         9.00       0.00       0.00       0.00       8.78       0.00       8.78        0.06     0.03   0.976
  RD04_5_rdsq_out_with_PP       9.00     178.24       0.00       0.57       0.00       0.00      50.57        0.02     0.01   0.270
  RD04_5_rdsq_out_with_VS       9.00       9.04       0.00       9.87       0.00       0.00       0.16        0.00     0.00   0.009
  RD04_6_rdsq_out_no         9.00       0.00       0.00       0.00       8.78       0.00       8.78        0.05     0.03   0.975
  RD04_6_rdsq_out_with_PP       9.00     177.87       0.00       0.57       0.00       0.00      50.24        0.01     0.01   0.269
  RD04_6_rdsq_out_with_VS       9.00       8.99       0.00       9.87       0.00       0.00       0.19        0.00     0.00   0.010
  RD04_7_rdsq_out_no         9.00       0.00       0.00       0.00       8.77       0.00       8.77        0.04     0.02   0.974
  RD04_7_rdsq_out_with_PP       9.00     177.73       0.00       0.00     177.80       0.00     177.80        0.04     0.02   0.952
  RD04_7_rdsq_out_with_VS       9.00      32.19       0.00      10.12       0.00       0.00       3.64        0.00     0.00   0.088
  RD04_8_rdsq_out_no         9.00       0.00       0.00       0.00       8.75       0.00       8.75        0.03     0.02   0.972
  RD04_8_rdsq_out_with_PP       9.00     177.21       0.00       0.00     177.27       0.00     177.27        0.03     0.02   0.952
  RD04_8_rdsq_out_with_VS       9.00      32.12       0.00      10.13       0.00       0.00       4.40        0.00     0.00   0.107
  RD04_9_rdsq_out_no         9.00       0.00       0.00       0.00       8.78       0.00       8.78        0.03     0.02   0.975
  RD04_9_rdsq_out_with_PP       9.00     177.44       0.00       0.00     177.52       0.00     177.52        0.03     0.02   0.952
  RD04_9_rdsq_out_with_VS       9.00      32.21       0.00      10.17       0.00      32.21      32.44        0.03     0.02   0.787
  RD05_1_rdsq_out_no         9.00       0.00       0.00       0.00       8.79       0.00       8.79        0.03     0.02   0.976
  RD05_1_rdsq_out_with_PP       9.00     177.73       0.00       0.00     177.79       0.00     177.79        0.03     0.02   0.952
  RD05_1_rdsq_out_with_VS       9.00      32.24       0.00      10.12       0.00       0.00       3.92        0.00     0.00   0.095
  RD05_10_rdsq_out_no        9.00       0.00       0.00       0.00       8.80       0.00       8.80        0.02     0.01   0.978
  RD05_10_rdsq_out_with_PP       9.00     178.90       0.00       0.57       0.00       0.00      51.14        0.01     0.00   0.272
  RD05_10_rdsq_out_with_VS       9.00       9.13       0.00       9.87       0.00       0.00       0.45        0.00     0.00   0.025
  RD05_11_rdsq_out_no        9.00       0.00       0.00       0.00       8.82       0.00       8.82        0.01     0.01   0.980
  RD05_11_rdsq_out_with_PP       9.00     178.44       0.00       0.00     178.60       0.00     178.60        0.01     0.01   0.953
  RD05_11_rdsq_out_with_VS       9.00      32.41       0.00      10.13       0.00       0.00       9.57        0.00     0.00   0.231
  RD05_12_rdsq_out_no        9.00       0.00       0.00       0.00       8.82       0.00       8.82        0.01     0.01   0.980
  RD05_12_rdsq_out_with_PP       9.00     178.50       0.00       0.00     178.67       0.00     178.67        0.01     0.01   0.953
  RD05_12_rdsq_out_with_VS       9.00      32.43       0.00      10.13       0.00       0.00       9.58        0.00     0.00   0.231
  RD05_13_rdsq_out_no        9.00       0.00       0.00       0.00       8.78       0.00       8.78        0.03     0.02   0.975
  RD05_13_rdsq_out_with_PP       9.00     177.96       0.00       0.57       0.00       0.00      50.32        0.01     0.01   0.269
  RD05_13_rdsq_out_with_VS       9.00       9.00       0.00       9.87       0.00       0.00       0.25        0.00     0.00   0.014
  RD05_14_rdsq_out_no        9.00       0.00       0.00       0.00       8.79       0.00       8.79        0.04     0.02   0.976
  RD05_14_rdsq_out_with_PP       9.00     178.45       0.00       0.57       0.00       0.00      50.76        0.01     0.01   0.271
  RD05_14_rdsq_out_with_VS       9.00       9.06       0.00       9.87       0.00       0.00       0.23        0.00     0.00   0.013
  RD05_15_rdsq_out_no        9.00       0.00       0.00       0.00       8.79       0.00       8.79        0.01     0.01   0.976
  RD05_15_rdsq_out_with_PP       9.00     177.21       0.00       0.00     177.34       0.00     177.34        0.01     0.01   0.952
  RD05_15_rdsq_out_with_VS       9.00      32.27       0.00      10.13       0.00       0.00       7.97        0.00     0.00   0.193
  RD05_16_rdsq_out_no        9.00       0.00       0.00       0.00       8.77       0.00       8.77        0.02     0.01   0.974
  RD05_16_rdsq_out_with_PP       9.00     178.34       0.00       0.57       0.00       0.00      50.71        0.00     0.00   0.271
  RD05_16_rdsq_out_with_VS       9.00       9.04       0.00       9.87       0.00       0.00       0.57        0.00     0.00   0.031
  RD05_17_rdsq_out_no        9.00       0.00       0.00       0.00       8.77       0.00       8.77        0.01     0.01   0.974
  RD05_17_rdsq_out_with_PP       9.00     177.02       0.00       0.00     177.15       0.00     177.15        0.01     0.01   0.952
  RD05_17_rdsq_out_with_VS       9.00      32.21       0.00      10.13       0.00       0.00       8.17        0.00     0.00   0.198
  RD05_18_rdsq_out_no        9.00       0.00       0.00       0.00       8.78       0.00       8.78        0.01     0.01   0.975
  RD05_18_rdsq_out_with_PP       9.00     178.61       0.00       0.57       0.00       0.00      50.94        0.00     0.00   0.272
  RD05_18_rdsq_out_with_VS       9.00       9.07       0.00       9.87       0.00       0.00       0.59        0.00     0.00   0.033
  RD05_19_rdsq_out_no        9.00       0.00       0.00       0.00       8.80       0.00       8.80        0.01     0.01   0.977
  RD05_19_rdsq_out_with_PP       9.00     177.39       0.00       0.00     177.52       0.00     177.52        0.01     0.01   0.952
  RD05_19_rdsq_out_with_VS       9.00      32.29       0.00      10.13       0.00       0.00       7.83        0.00     0.00   0.190
  RD05_2_rdsq_out_no         9.00       0.00       0.00       0.00       8.74       0.00       8.74        0.04     0.02   0.970
  RD05_2_rdsq_out_with_PP       9.00     176.72       0.00       0.00     176.78       0.00     176.78        0.04     0.02   0.952
  RD05_2_rdsq_out_with_VS       9.00      32.05       0.00      10.13       0.00       0.00       3.53        0.00     0.00   0.086
  RD05_20_rdsq_out_no        9.00       0.00       0.00       0.00       8.78       0.00       8.78        0.02     0.01   0.975
  RD05_20_rdsq_out_with_PP       9.00     178.50       0.00       0.57       0.00       0.00      50.84        0.00     0.00   0.271
  RD05_20_rdsq_out_with_VS       9.00       9.05       0.00       9.82       0.00       9.05       9.06        0.00     0.00   0.502
  RD05_21_rdsq_out_no        9.00       0.00       0.00       0.00       8.80       0.00       8.80        0.01     0.01   0.978
  RD05_21_rdsq_out_with_PP       9.00     178.61       0.00       0.57       0.00       0.00      50.88        0.00     0.00   0.271
  RD05_21_rdsq_out_with_VS       9.00       9.09       0.00       9.83       0.00       9.08       9.10        0.00     0.00   0.503
  RD05_22_rdsq_out_no        9.00       0.00       0.00       0.00       8.81       0.00       8.81        0.01     0.01   0.979
  RD05_22_rdsq_out_with_PP       9.00     178.41       0.00       0.00     178.61       0.00     178.61        0.01     0.01   0.953
  RD05_22_rdsq_out_with_VS       9.00      32.34       0.00      10.17       0.00      32.33      32.95        0.01     0.01   0.797
  RD05_23_rdsq_out_no        9.00       0.00       0.00       0.00       8.79       0.00       8.79        0.02     0.01   0.976
  RD05_23_rdsq_out_with_PP       9.00     178.11       0.00       0.57       0.00       0.00      50.45        0.00     0.00   0.270
  RD05_23_rdsq_out_with_VS       9.00       9.02       0.00       9.82       0.00       9.02       9.03        0.00     0.00   0.501
  RD05_24_rdsq_out_no        9.00       0.00       0.00       0.00       8.79       0.00       8.79        0.02     0.01   0.976
  RD05_24_rdsq_out_with_PP       9.00     177.61       0.00       0.00     177.73       0.00     177.73        0.02     0.01   0.952
  RD05_24_rdsq_out_with_VS       9.00      32.29       0.00      10.13       0.00       0.00       7.40        0.00     0.00   0.179
  RD05_25_rdsq_out_no        9.00       0.00       0.00       0.00       8.80       0.00       8.80        0.01     0.01   0.978
  RD05_25_rdsq_out_with_PP       9.00     179.74       0.00       0.57       0.00       0.00      51.92        0.00     0.00   0.275
  RD05_25_rdsq_out_with_VS       9.00       9.21       0.00       9.83       0.00       9.20       9.22        0.00     0.00   0.506
  RD05_26_rdsq_out_no        9.00       0.00       0.00       0.00       8.81       0.00       8.81        0.01     0.01   0.979
  RD05_26_rdsq_out_with_PP       9.00     178.61       0.00       0.57       0.00       0.00      50.87        0.00     0.00   0.271
  RD05_26_rdsq_out_with_VS       9.00       9.09       0.00       9.83       0.00       9.08       9.10        0.00     0.00   0.503
  RD05_3_rdsq_out_no         9.00       0.00       0.00       0.00       8.77       0.00       8.77        0.04     0.02   0.974
  RD05_3_rdsq_out_with_PP       9.00     177.38       0.00       0.00     177.44       0.00     177.44        0.04     0.02   0.952
  RD05_3_rdsq_out_with_VS       9.00      32.17       0.00      10.13       0.00       0.00       3.44        0.00     0.00   0.084
  RD05_4_rdsq_out_no         9.00       0.00       0.00       0.00       8.73       0.00       8.73        0.04     0.02   0.970
  RD05_4_rdsq_out_with_PP       9.00     177.24       0.00       0.56       0.00       0.00      49.77        0.01     0.01   0.267
  RD05_4_rdsq_out_with_VS       9.00       8.87       0.00       9.86       0.00       0.00       0.22        0.00     0.00   0.012
  RD05_5_rdsq_out_no         9.00       0.00       0.00       0.00       8.83       0.00       8.83        0.02     0.01   0.980
  RD05_5_rdsq_out_with_PP       9.00     178.72       0.00       0.00     178.85       0.00     178.85        0.02     0.01   0.953
  RD05_5_rdsq_out_with_VS       9.00      32.37       0.00      10.17       0.00      32.37      32.76        0.02     0.01   0.792
  RD05_6_rdsq_out_no         9.00       0.00       0.00       0.00       8.79       0.00       8.79        0.02     0.01   0.976
  RD05_6_rdsq_out_with_PP       9.00     177.40       0.00       0.00     177.52       0.00     177.52        0.02     0.01   0.952
  RD05_6_rdsq_out_with_VS       9.00      32.26       0.00      10.17       0.00      32.26      32.65        0.02     0.01   0.791
  RD05_7_rdsq_out_no         9.00       0.00       0.00       0.00       8.83       0.00       8.83        0.01     0.01   0.981
  RD05_7_rdsq_out_with_PP       9.00     180.35       0.00       0.58       0.00       0.00      52.44        0.00     0.00   0.277
  RD05_7_rdsq_out_with_VS       9.00       9.32       0.00       9.88       0.00       0.00       0.91        0.00     0.00   0.050
  RD05_8_rdsq_out_no         9.00       0.00       0.00       0.00       8.84       0.00       8.84        0.01     0.01   0.982
  RD05_8_rdsq_out_with_PP       9.00     177.91       0.00       0.00     178.09       0.00     178.09        0.01     0.01   0.953
  RD05_8_rdsq_out_with_VS       9.00      32.52       0.00      10.13       0.00       0.00      10.92        0.00     0.00   0.263
  RD05_9_rdsq_out_no         9.00       0.00       0.00       0.00       8.79       0.00       8.79        0.02     0.01   0.976
  RD05_9_rdsq_out_with_PP       9.00     177.35       0.00       0.00     177.45       0.00     177.45        0.02     0.01   0.952
  RD05_9_rdsq_out_with_VS       9.00      32.28       0.00      10.13       0.00       0.00       6.01        0.00     0.00   0.146
  RD06_1_rdsq_out_no         9.00       0.00       0.00       0.00       8.81       0.00       8.81        0.02     0.01   0.979
  RD06_1_rdsq_out_with_PP       9.00     178.46       0.00       0.00     178.56       0.00     178.56        0.02     0.01   0.953
  RD06_1_rdsq_out_with_VS       9.00      32.36       0.00      10.17       0.00      32.35      32.68        0.02     0.01   0.790
  RD06_10_rdsq_out_no        9.00       0.00       0.00       0.00       8.76       0.00       8.76        0.04     0.02   0.973
  RD06_10_rdsq_out_with_PP       9.00     177.96       0.00       0.57       0.00       0.00      50.37        0.01     0.01   0.269
  RD06_10_rdsq_out_with_VS       9.00       8.98       0.00       9.86       0.00       0.00       0.25        0.00     0.00   0.014
  RD06_11_rdsq_out_no        9.00       0.00       0.00       0.00       8.77       0.00       8.77        0.03     0.02   0.975
  RD06_11_rdsq_out_with_PP       9.00     178.16       0.00       0.57       0.00       0.00      50.52        0.01     0.01   0.270
  RD06_11_rdsq_out_with_VS       9.00       9.01       0.00       9.82       0.00       9.01       9.02        0.01     0.01   0.501
  RD06_12_rdsq_out_no        9.00       0.00       0.00       0.00       8.76       0.00       8.76        0.03     0.01   0.973
  RD06_12_rdsq_out_with_PP       9.00     177.03       0.00       0.00     177.11       0.00     177.11        0.03     0.01   0.952
  RD06_12_rdsq_out_with_VS       9.00      32.16       0.00      10.13       0.00       0.00       4.87        0.00     0.00   0.118
  RD06_13_rdsq_out_no        9.00       0.00       0.00       0.00       8.80       0.00       8.80        0.02     0.01   0.977
  RD06_13_rdsq_out_with_PP       9.00     179.08       0.00       0.57       0.00       0.00      51.33        0.00     0.00   0.273
  RD06_13_rdsq_out_with_VS       9.00       9.14       0.00       9.82       0.00       9.14       9.15        0.00     0.00   0.504
  RD06_14_rdsq_out_no        9.00       0.00       0.00       0.00       8.80       0.00       8.80        0.02     0.01   0.977
  RD06_14_rdsq_out_with_PP       9.00     178.35       0.00       0.57       0.00       0.00      50.65        0.01     0.00   0.270
  RD06_14_rdsq_out_with_VS       9.00       9.06       0.00       9.87       0.00       0.00       0.47        0.00     0.00   0.026
  RD06_15_rdsq_out_no        9.00       0.00       0.00       0.00       8.76       0.00       8.76        0.04     0.02   0.973
  RD06_15_rdsq_out_with_PP       9.00     177.72       0.00       0.57       0.00       0.00      50.15        0.01     0.01   0.269
  RD06_15_rdsq_out_with_VS       9.00       8.95       0.00       9.86       0.00       0.00       0.21        0.00     0.00   0.012
  RD06_16_rdsq_out_no        9.00       0.00       0.00       0.00       8.76       0.00       8.76        0.05     0.03   0.973
  RD06_16_rdsq_out_with_PP       9.00     177.17       0.00       0.00     177.23       0.00     177.23        0.05     0.03   0.952
  RD06_16_rdsq_out_with_VS       9.00      32.13       0.00      10.13       0.00       0.00       2.64        0.00     0.00   0.064
  RD06_17_rdsq_out_no        9.00       0.00       0.00       0.00       8.77       0.00       8.77        0.03     0.02   0.974
  RD06_17_rdsq_out_with_PP       9.00     177.15       0.00       0.00     177.22       0.00     177.22        0.03     0.02   0.952
  RD06_17_rdsq_out_with_VS       9.00      32.17       0.00      10.17       0.00      32.17      32.36        0.03     0.02   0.786
  RD06_18_rdsq_out_no        9.00       0.00       0.00       0.00       8.78       0.00       8.78        0.03     0.02   0.975
  RD06_18_rdsq_out_with_PP       9.00     178.19       0.00       0.57       0.00       0.00      50.54        0.01     0.01   0.270
  RD06_18_rdsq_out_with_VS       9.00       9.02       0.00       9.82       0.00       9.02       9.03        0.01     0.01   0.501
  RD06_19_rdsq_out_no        9.00       0.00       0.00       0.00       8.79       0.00       8.79        0.02     0.01   0.976
  RD06_19_rdsq_out_with_PP       9.00     177.15       0.00       0.00     177.26       0.00     177.26        0.02     0.01   0.952
  RD06_19_rdsq_out_with_VS       9.00      32.26       0.00      10.13       0.00       0.00       6.18        0.00     0.00   0.150
  RD06_2_rdsq_out_no         9.00       0.00       0.00       0.00       8.81       0.00       8.81        0.02     0.01   0.978
  RD06_2_rdsq_out_with_PP       9.00     178.58       0.00       0.57       0.00       0.00      50.84        0.01     0.00   0.271
  RD06_2_rdsq_out_with_VS       9.00       9.09       0.00       9.82       0.00       9.09       9.09        0.01     0.00   0.503
  RD06_20_rdsq_out_no        9.00       0.00       0.00       0.00       8.79       0.00       8.79        0.02     0.01   0.976
  RD06_20_rdsq_out_with_PP       9.00     178.41       0.00       0.57       0.00       0.00      50.72        0.01     0.00   0.271
  RD06_20_rdsq_out_with_VS       9.00       9.05       0.00       9.82       0.00       9.04       9.05        0.01     0.00   0.502
  RD06_21_rdsq_out_no        9.00       0.00       0.00       0.00       8.79       0.00       8.79        0.02     0.01   0.977
  RD06_21_rdsq_out_with_PP       9.00     178.87       0.00       0.57       0.00       0.00      51.14        0.01     0.00   0.272
  RD06_21_rdsq_out_with_VS       9.00       9.12       0.00       9.87       0.00       0.00       0.42        0.00     0.00   0.023
  RD06_22_rdsq_out_no        9.00       0.00       0.00       0.00       8.79       0.00       8.79        0.02     0.01   0.976
  RD06_22_rdsq_out_with_PP       9.00     178.47       0.00       0.57       0.00       0.00      50.77        0.01     0.00   0.271
  RD06_22_rdsq_out_with_VS       9.00       9.06       0.00       9.82       0.00       9.05       9.06        0.01     0.00   0.502
  RD06_23_rdsq_out_no        9.00       0.00       0.00       0.00       8.79       0.00       8.79        0.03     0.02   0.976
  RD06_23_rdsq_out_with_PP       9.00     177.86       0.00       0.00     177.93       0.00     177.93        0.03     0.02   0.952
  RD06_23_rdsq_out_with_VS       9.00      32.24       0.00      10.17       0.00      32.24      32.47        0.03     0.02   0.787
  RD06_24_rdsq_out_no        9.00       0.00       0.00       0.00       8.78       0.00       8.78        0.02     0.01   0.976
  RD06_24_rdsq_out_with_PP       9.00     177.53       0.00       0.00     177.62       0.00     177.62        0.02     0.01   0.952
  RD06_24_rdsq_out_with_VS       9.00      32.25       0.00      10.13       0.00       0.00       5.19        0.00     0.00   0.126
  RD06_3_rdsq_out_no         9.00       0.00       0.00       0.00       8.77       0.00       8.77        0.03     0.01   0.974
  RD06_3_rdsq_out_with_PP       9.00     177.89       0.00       0.57       0.00       0.00      50.28        0.01     0.01   0.269
  RD06_3_rdsq_out_with_VS       9.00       8.98       0.00       9.87       0.00       0.00       0.34        0.00     0.00   0.019
  RD06_4_rdsq_out_no         9.00       0.00       0.00       0.00       8.76       0.00       8.76        0.03     0.01   0.973
  RD06_4_rdsq_out_with_PP       9.00     177.82       0.00       0.57       0.00       0.00      50.24        0.01     0.01   0.269
  RD06_4_rdsq_out_with_VS       9.00       8.96       0.00       9.82       0.00       8.96       8.97        0.01     0.01   0.499
  RD06_5_rdsq_out_no         9.00       0.00       0.00       0.00       8.77       0.00       8.77        0.03     0.02   0.974
  RD06_5_rdsq_out_with_PP       9.00     177.45       0.00       0.00     177.52       0.00     177.52        0.03     0.02   0.952
  RD06_5_rdsq_out_with_VS       9.00      32.18       0.00      10.17       0.00      32.18      32.39        0.03     0.02   0.786
  RD06_6_rdsq_out_no         9.00       0.00       0.00       0.00       8.79       0.00       8.79        0.02     0.01   0.976
  RD06_6_rdsq_out_with_PP       9.00     177.13       0.00       0.00     177.23       0.00     177.23        0.02     0.01   0.952
  RD06_6_rdsq_out_with_VS       9.00      32.24       0.00      10.17       0.00      32.24      32.61        0.02     0.01   0.791
  RD06_7_rdsq_out_no         9.00       0.00       0.00       0.00       8.76       0.00       8.76        0.03     0.02   0.973
  RD06_7_rdsq_out_with_PP       9.00     177.26       0.00       0.00     177.32       0.00     177.32        0.03     0.02   0.952
  RD06_7_rdsq_out_with_VS       9.00      32.14       0.00      10.13       0.00       0.00       3.81        0.00     0.00   0.093
  RD06_8_rdsq_out_no         9.00       0.00       0.00       0.00       8.78       0.00       8.78        0.03     0.02   0.975
  RD06_8_rdsq_out_with_PP       9.00     177.75       0.00       0.00     177.82       0.00     177.82        0.03     0.02   0.952
  RD06_8_rdsq_out_with_VS       9.00      32.20       0.00      10.17       0.00      32.19      32.40        0.03     0.02   0.786
  RD06_9_rdsq_out_no         9.00       0.00       0.00       0.00       8.78       0.00       8.78        0.02     0.01   0.975
  RD06_9_rdsq_out_with_PP       9.00     177.77       0.00       0.00     177.89       0.00     177.89        0.02     0.01   0.952
  RD06_9_rdsq_out_with_VS       9.00      32.23       0.00      10.13       0.00       0.00       7.56        0.00     0.00   0.183
  RD07_1_rdsq_out_no         9.00       0.00       0.00       0.00       8.75       0.00       8.75        0.09     0.05   0.972
  RD07_1_rdsq_out_with_PP       9.00     177.44       0.00       0.57       0.00       0.00      49.91        0.02     0.02   0.268
  RD07_1_rdsq_out_with_VS       9.00       8.91       0.00       9.87       0.00       0.00       0.10        0.00     0.00   0.006
  RD07_10_rdsq_out_no        9.00       0.00       0.00       0.00       8.80       0.00       8.80        0.03     0.02   0.978
  RD07_10_rdsq_out_with_PP       9.00     178.07       0.00       0.00     178.14       0.00     178.14        0.03     0.02   0.952
  RD07_10_rdsq_out_with_VS       9.00      32.32       0.00      10.13       0.00       0.00       4.47        0.00     0.00   0.108
  RD07_11_rdsq_out_no        9.00       0.00       0.00       0.00       8.77       0.00       8.77        0.04     0.02   0.974
  RD07_11_rdsq_out_with_PP       9.00     177.54       0.00       0.00     177.60       0.00     177.60        0.04     0.02   0.952
  RD07_11_rdsq_out_with_VS       9.00      32.15       0.00      10.12       0.00       0.00       3.18        0.00     0.00   0.077
  RD07_12_rdsq_out_no        9.00       0.00       0.00       0.00       8.79       0.00       8.79        0.03     0.02   0.976
  RD07_12_rdsq_out_with_PP       9.00     177.80       0.00       0.00     177.88       0.00     177.88        0.03     0.02   0.952
  RD07_12_rdsq_out_with_VS       9.00      32.27       0.00      10.13       0.00       0.00       4.30        0.00     0.00   0.104
  RD07_13_rdsq_out_no        9.00       0.00       0.00       0.00       8.77       0.00       8.77        0.03     0.02   0.974
  RD07_13_rdsq_out_with_PP       9.00     178.06       0.00       0.57       0.00       0.00      50.44        0.01     0.01   0.270
  RD07_13_rdsq_out_with_VS       9.00       9.00       0.00       9.87       0.00       0.00       0.27        0.00     0.00   0.015
  RD07_14_rdsq_out_no        9.00       0.00       0.00       0.00       8.77       0.00       8.77        0.03     0.02   0.974
  RD07_14_rdsq_out_with_PP       9.00     177.61       0.00       0.00     177.68       0.00     177.68        0.03     0.02   0.952
  RD07_14_rdsq_out_with_VS       9.00      32.18       0.00      10.17       0.00      32.17      32.39        0.03     0.02   0.787
  RD07_15_rdsq_out_no        9.00       0.00       0.00       0.00       8.76       0.00       8.76        0.05     0.03   0.973
  RD07_15_rdsq_out_with_PP       9.00     177.23       0.00       0.00     177.27       0.00     177.27        0.05     0.03   0.952
  RD07_15_rdsq_out_with_VS       9.00      32.13       0.00      10.12       0.00       0.00       2.82        0.00     0.00   0.068
  RD07_2_rdsq_out_no         9.00       0.00       0.00       0.00       8.77       0.00       8.77        0.04     0.02   0.973
  RD07_2_rdsq_out_with_PP       9.00     177.96       0.00       0.57       0.00       0.00      50.36        0.01     0.01   0.269
  RD07_2_rdsq_out_with_VS       9.00       8.99       0.00       9.87       0.00       0.00       0.24        0.00     0.00   0.013
  RD07_3_rdsq_out_no         9.00       0.00       0.00       0.00       8.76       0.00       8.76        0.04     0.02   0.973
  RD07_3_rdsq_out_with_PP       9.00     177.04       0.00       0.00     177.10       0.00     177.10        0.04     0.02   0.952
  RD07_3_rdsq_out_with_VS       9.00      32.14       0.00      10.13       0.00       0.00       3.04        0.00     0.00   0.074
  RD07_4_rdsq_out_no         9.00       0.00       0.00       0.00       8.77       0.00       8.77        0.04     0.02   0.974
  RD07_4_rdsq_out_with_PP       9.00     177.42       0.00       0.00     177.48       0.00     177.48        0.04     0.02   0.952
  RD07_4_rdsq_out_with_VS       9.00      32.18       0.00      10.13       0.00       0.00       3.25        0.00     0.00   0.079
  RD07_5_rdsq_out_no         9.00       0.00       0.00       0.00       8.80       0.00       8.80        0.03     0.01   0.977
  RD07_5_rdsq_out_with_PP       9.00     178.55       0.00       0.57       0.00       0.00      50.83        0.01     0.01   0.271
  RD07_5_rdsq_out_with_VS       9.00       9.08       0.00       9.87       0.00       0.00       0.34        0.00     0.00   0.019
  RD07_6_rdsq_out_no         9.00       0.00       0.00       0.00       8.78       0.00       8.78        0.03     0.02   0.975
  RD07_6_rdsq_out_with_PP       9.00     177.58       0.00       0.00     177.65       0.00     177.65        0.03     0.02   0.952
  RD07_6_rdsq_out_with_VS       9.00      32.22       0.00      10.13       0.00       0.00       4.51        0.00     0.00   0.109
  RD07_7_rdsq_out_no         9.00       0.00       0.00       0.00       8.76       0.00       8.76        0.03     0.01   0.973
  RD07_7_rdsq_out_with_PP       9.00     176.91       0.00       0.00     176.99       0.00     176.99        0.03     0.01   0.952
  RD07_7_rdsq_out_with_VS       9.00      32.14       0.00      10.17       0.00      32.13      32.37        0.03     0.01   0.787
  RD07_8_rdsq_out_no         9.00       0.00       0.00       0.00       8.76       0.00       8.76        0.04     0.02   0.973
  RD07_8_rdsq_out_with_PP       9.00     177.52       0.00       0.57       0.00       0.00      49.98        0.01     0.01   0.268
  RD07_8_rdsq_out_with_VS       9.00       8.92       0.00       9.86       0.00       0.00       0.23        0.00     0.00   0.013
  RD07_9_rdsq_out_no         9.00       0.00       0.00       0.00       8.78       0.00       8.78        0.02     0.01   0.975
  RD07_9_rdsq_out_with_PP       9.00     178.63       0.00       0.57       0.00       0.00      50.96        0.00     0.00   0.272
  RD07_9_rdsq_out_with_VS       9.00       9.08       0.00       9.87       0.00       0.00       0.52        0.00     0.00   0.029
  RD08_1_rdsq_out_no         9.00       0.00       0.00       0.00       8.76       0.00       8.76        0.04     0.02   0.973
  RD08_1_rdsq_out_with_PP       9.00     177.28       0.00       0.00     177.34       0.00     177.34        0.04     0.02   0.952
  RD08_1_rdsq_out_with_VS       9.00      32.12       0.00      10.12       0.00       0.00       3.60        0.00     0.00   0.088
  RD08_10_rdsq_out_no        9.00       0.00       0.00       0.00       8.79       0.00       8.79        0.02     0.01   0.976
  RD08_10_rdsq_out_with_PP       9.00     177.54       0.00       0.00     177.67       0.00     177.67        0.02     0.01   0.952
  RD08_10_rdsq_out_with_VS       9.00      32.23       0.00      10.17       0.00      32.23      32.63        0.02     0.01   0.791
  RD08_11_rdsq_out_no        9.00       0.00       0.00       0.00       8.79       0.00       8.79        0.01     0.01   0.976
  RD08_11_rdsq_out_with_PP       9.00     179.12       0.00       0.57       0.00       0.00      51.38        0.00     0.00   0.273
  RD08_11_rdsq_out_with_VS       9.00       9.13       0.00       9.83       0.00       9.12       9.14        0.00     0.00   0.504
  RD08_12_rdsq_out_no        9.00       0.00       0.00       0.00       8.81       0.00       8.81        0.01     0.01   0.978
  RD08_12_rdsq_out_with_PP       9.00     178.83       0.00       0.57       0.00       0.00      51.08        0.00     0.00   0.272
  RD08_12_rdsq_out_with_VS       9.00       9.11       0.00       9.82       0.00       9.10       9.12        0.00     0.00   0.503
  RD08_13_rdsq_out_no        9.00       0.00       0.00       0.00       8.80       0.00       8.80        0.01     0.01   0.977
  RD08_13_rdsq_out_with_PP       9.00     179.48       0.00       0.57       0.00       0.00      51.70        0.00     0.00   0.274
  RD08_13_rdsq_out_with_VS       9.00       9.20       0.00       9.87       0.00       0.00       0.79        0.00     0.00   0.043
  RD08_14_rdsq_out_no        9.00       0.00       0.00       0.00       8.80       0.00       8.80        0.01     0.01   0.978
  RD08_14_rdsq_out_with_PP       9.00     177.57       0.00       0.00     177.71       0.00     177.71        0.01     0.01   0.952
  RD08_14_rdsq_out_with_VS       9.00      32.28       0.00      10.17       0.00      32.27      32.75        0.01     0.01   0.793
  RD08_15_rdsq_out_no        9.00       0.00       0.00       0.00       8.83       0.00       8.83        0.01     0.01   0.980
  RD08_15_rdsq_out_with_PP       9.00     178.44       0.00       0.00     178.61       0.00     178.61        0.01     0.01   0.953
  RD08_15_rdsq_out_with_VS       9.00      32.43       0.00      10.13       0.00       0.00       9.81        0.00     0.00   0.237
  RD08_16_rdsq_out_no        9.00       0.00       0.00       0.00       8.81       0.00       8.81        0.01     0.01   0.978
  RD08_16_rdsq_out_with_PP       9.00     177.95       0.00       0.00     178.08       0.00     178.08        0.01     0.01   0.953
  RD08_16_rdsq_out_with_VS       9.00      32.31       0.00      10.17       0.00      32.31      32.74        0.01     0.01   0.793
  RD08_2_rdsq_out_no         9.00       0.00       0.00       0.00       8.74       0.00       8.74        0.04     0.02   0.971
  RD08_2_rdsq_out_with_PP       9.00     176.66       0.00       0.00     176.72       0.00     176.72        0.04     0.02   0.952
  RD08_2_rdsq_out_with_VS       9.00      32.06       0.00      10.12       0.00       0.00       3.56        0.00     0.00   0.087
  RD08_3_rdsq_out_no         9.00       0.00       0.00       0.00       8.70       0.00       8.70        0.13     0.07   0.966
  RD08_3_rdsq_out_with_PP       9.00     176.09       0.00       0.00     156.25       0.00     156.25        0.11     0.04   0.844
  RD08_3_rdsq_out_with_VS       9.00      28.22       0.00      10.11       0.00       0.00       0.85        0.00     0.00   0.023
  RD08_4_rdsq_out_no         9.00       0.00       0.00       0.00       8.78       0.00       8.78        0.02     0.01   0.975
  RD08_4_rdsq_out_with_PP       9.00     177.98       0.00       0.57       0.00       0.00      50.35        0.01     0.00   0.269
  RD08_4_rdsq_out_with_VS       9.00       9.00       0.00       9.82       0.00       9.00       9.00        0.01     0.00   0.500
  RD08_5_rdsq_out_no         9.00       0.00       0.00       0.00       8.78       0.00       8.78        0.02     0.01   0.975
  RD08_5_rdsq_out_with_PP       9.00     178.45       0.00       0.57       0.00       0.00      50.77        0.01     0.00   0.271
  RD08_5_rdsq_out_with_VS       9.00       9.06       0.00       9.87       0.00       0.00       0.43        0.00     0.00   0.024
  RD08_6_rdsq_out_no         9.00       0.00       0.00       0.00       8.77       0.00       8.77        0.04     0.02   0.974
  RD08_6_rdsq_out_with_PP       9.00     177.73       0.00       0.57       0.00       0.00      50.14        0.01     0.01   0.268
  RD08_6_rdsq_out_with_VS       9.00       8.96       0.00       9.87       0.00       0.00       0.25        0.00     0.00   0.014
  RD08_7_rdsq_out_no         9.00       0.00       0.00       0.00       8.80       0.00       8.80        0.02     0.01   0.978
  RD08_7_rdsq_out_with_PP       9.00     178.60       0.00       0.57       0.00       0.00      50.87        0.01     0.00   0.271
  RD08_7_rdsq_out_with_VS       9.00       9.09       0.00       9.82       0.00       9.08       9.09        0.01     0.00   0.503
  RD08_8_rdsq_out_no         9.00       0.00       0.00       0.00       8.79       0.00       8.79        0.02     0.01   0.977
  RD08_8_rdsq_out_with_PP       9.00     178.02       0.00       0.00     178.13       0.00     178.13        0.02     0.01   0.952
  RD08_8_rdsq_out_with_VS       9.00      32.29       0.00      10.13       0.00       0.00       6.23        0.00     0.00   0.151
  RD08_9_rdsq_out_no         9.00       0.00       0.00       0.00       8.79       0.00       8.79        0.01     0.01   0.976
  RD08_9_rdsq_out_with_PP       9.00     177.29       0.00       0.00     177.42       0.00     177.42        0.01     0.01   0.952
  RD08_9_rdsq_out_with_VS       9.00      32.22       0.00      10.17       0.00      32.22      32.65        0.01     0.01   0.792
  RD09_1_rdsq_out_no         9.00       0.00       0.00       0.00       8.79       0.00       8.79        0.02     0.01   0.977
  RD09_1_rdsq_out_with_PP       9.00     177.88       0.00       0.00     177.97       0.00     177.97        0.02     0.01   0.952
  RD09_1_rdsq_out_with_VS       9.00      32.26       0.00      10.17       0.00      32.25      32.55        0.02     0.01   0.789
  RD09_10_rdsq_out_no        9.00       0.00       0.00       0.00       8.79       0.00       8.79        0.01     0.01   0.977
  RD09_10_rdsq_out_with_PP       9.00     178.23       0.00       0.57       0.00       0.00      50.54        0.00     0.00   0.270
  RD09_10_rdsq_out_with_VS       9.00       9.05       0.00       9.87       0.00       0.00       0.61        0.00     0.00   0.034
  RD09_11_rdsq_out_no        9.00       0.00       0.00       0.00       8.78       0.00       8.78        0.03     0.01   0.975
  RD09_11_rdsq_out_with_PP       9.00     178.14       0.00       0.57       0.00       0.00      50.50        0.01     0.01   0.270
  RD09_11_rdsq_out_with_VS       9.00       9.02       0.00       9.87       0.00       0.00       0.33        0.00     0.00   0.018
  RD09_12_rdsq_out_no        9.00       0.00       0.00       0.00       8.79       0.00       8.79        0.03     0.01   0.976
  RD09_12_rdsq_out_with_PP       9.00     177.38       0.00       0.00     177.47       0.00     177.47        0.03     0.01   0.952
  RD09_12_rdsq_out_with_VS       9.00      32.23       0.00      10.17       0.00      32.23      32.48        0.03     0.01   0.788
  RD09_2_rdsq_out_no         9.00       0.00       0.00       0.00       8.78       0.00       8.78        0.02     0.01   0.975
  RD09_2_rdsq_out_with_PP       9.00     177.86       0.00       0.00     177.95       0.00     177.95        0.02     0.01   0.952
  RD09_2_rdsq_out_with_VS       9.00      32.21       0.00      10.17       0.00      32.20      32.47        0.02     0.01   0.788
  RD09_3_rdsq_out_no         9.00       0.00       0.00       0.00       8.80       0.00       8.80        0.03     0.01   0.978
  RD09_3_rdsq_out_with_PP       9.00     178.80       0.00       0.57       0.00       0.00      51.05        0.01     0.01   0.272
  RD09_3_rdsq_out_with_VS       9.00       9.12       0.00       9.87       0.00       0.00       0.35        0.00     0.00   0.019
  RD09_4_rdsq_out_no         9.00       0.00       0.00       0.00       8.79       0.00       8.79        0.03     0.02   0.976
  RD09_4_rdsq_out_with_PP       9.00     178.07       0.00       0.00     178.15       0.00     178.15        0.03     0.02   0.952
  RD09_4_rdsq_out_with_VS       9.00      32.27       0.00      10.13       0.00       0.00       4.53        0.00     0.00   0.110
  RD09_5_rdsq_out_no         9.00       0.00       0.00       0.00       8.75       0.00       8.75        0.05     0.03   0.972
  RD09_5_rdsq_out_with_PP       9.00     177.45       0.00       0.57       0.00       0.00      49.92        0.01     0.01   0.268
  RD09_5_rdsq_out_with_VS       9.00       8.92       0.00       9.87       0.00       0.00       0.16        0.00     0.00   0.009
  RD09_6_rdsq_out_no         9.00       0.00       0.00       0.00       8.76       0.00       8.76        0.05     0.03   0.973
  RD09_6_rdsq_out_with_PP       9.00     177.11       0.00       0.00     177.16       0.00     177.16        0.05     0.03   0.952
  RD09_6_rdsq_out_with_VS       9.00      32.12       0.00      10.12       0.00       0.00       2.56        0.00     0.00   0.062
  RD09_7_rdsq_out_no         9.00       0.00       0.00       0.00       8.81       0.00       8.81        0.02     0.01   0.979
  RD09_7_rdsq_out_with_PP       9.00     178.20       0.00       0.00     178.31       0.00     178.31        0.02     0.01   0.953
  RD09_7_rdsq_out_with_VS       9.00      32.35       0.00      10.17       0.00      32.34      32.69        0.02     0.01   0.791
  RD09_8_rdsq_out_no         9.00       0.00       0.00       0.00       8.79       0.00       8.79        0.02     0.01   0.976
  RD09_8_rdsq_out_with_PP       9.00     178.59       0.00       0.57       0.00       0.00      50.89        0.00     0.00   0.271
  RD09_8_rdsq_out_with_VS       9.00       9.08       0.00       9.82       0.00       9.07       9.08        0.00     0.00   0.502
  RD09_9_rdsq_out_no         9.00       0.00       0.00       0.00       8.81       0.00       8.81        0.01     0.01   0.978
  RD09_9_rdsq_out_with_PP       9.00     178.20       0.00       0.00     178.33       0.00     178.33        0.01     0.01   0.953
  RD09_9_rdsq_out_with_VS       9.00      32.35       0.00      10.13       0.00       0.00       8.07        0.00     0.00   0.195
  S01_10_green_no            9.00       0.00       0.00       9.00       0.00       0.00       0.00        0.00     0.00   0.000
  S01_10_green_with_BR       9.00       0.00       0.00       0.00       0.00       0.00       0.00        0.00     0.00   0.000
  S01_10_green_with_VS       9.00       0.00       0.00       9.00       0.00       0.00       0.00        0.00     0.00   0.000
  S01_10_roof_no             9.00       0.00       0.00       0.00       8.20       0.00       8.20        0.06     0.03   0.911
  S01_10_roof_with_GR        9.00      29.48       0.00       0.00       0.00       0.00       0.00        0.00     0.00   0.000
  S01_10_rdsq_in_no_PP       9.00       0.00       0.00       0.00       8.62       0.00       8.62        0.03     0.02   0.957
  S01_10_rdsq_in_with_PP       9.00       4.57       0.00       0.00       0.00       0.00       0.00        0.00     0.00   0.000
  S01_10_rdsq_out_no_PP       9.00       0.00       0.00       0.00       8.82       0.00       8.82        0.01     0.01   0.979
  S01_10_rdsq_out_with_PP       9.00       4.68       0.00       0.00       0.00       0.00       0.00        0.00     0.00   0.000
  S01_12_green_no            9.00       0.00       0.00       9.00       0.00       0.00       0.00        0.00     0.00   0.000
  S01_12_green_with_BR       9.00       0.00       0.00       0.00       0.00       0.00       0.00        0.00     0.00   0.000
  S01_12_green_with_VS       9.00       0.00       0.00       9.00       0.00       0.00       0.00        0.00     0.00   0.000
  S01_12_roof_no             9.00       0.00       0.00       0.00       8.05       0.00       8.05        0.12     0.05   0.894
  S01_12_roof_with_GR        9.00      28.89       0.00       0.00       0.00       0.00       0.00        0.00     0.00   0.000
  S01_12_rdsq_in_no_PP       9.00       0.00       0.00       0.00       8.47       0.00       8.47        0.08     0.04   0.940
  S01_12_rdsq_in_with_PP       9.00       4.48       0.00       0.00       0.00       0.00       0.00        0.00     0.00   0.000
  S01_13_green_no            9.00       0.00       0.00       9.00       0.00       0.00       0.00        0.00     0.00   0.000
  S01_13_green_with_BR       9.00       0.00       0.00       0.00       0.00       0.00       0.00        0.00     0.00   0.000
  S01_13_green_with_VS       9.00       0.00       0.00       9.00       0.00       0.00       0.00        0.00     0.00   0.000
  S01_13_roof_no             9.00       0.00       0.00       0.00       8.04       0.00       8.04        0.12     0.05   0.893
  S01_13_roof_with_GR        9.00      28.84       0.00       0.00       0.00       0.00       0.00        0.00     0.00   0.000
  S01_13_rdsq_in_no_PP       9.00       0.00       0.00       0.00       8.40       0.00       8.40        0.06     0.03   0.932
  S01_13_rdsq_in_with_PP       9.00       4.44       0.00       0.00       0.00       0.00       0.00        0.00     0.00   0.000
  S01_13_rdsq_out_no_PP       9.00       0.00       0.00       0.00       8.78       0.00       8.78        0.02     0.01   0.975
  S01_13_rdsq_out_with_PP       9.00       4.66       0.00       0.00       0.00       0.00       0.00        0.00     0.00   0.000
  S01_14_green_no            9.00       0.00       0.00       9.00       0.00       0.00       0.00        0.00     0.00   0.000
  S01_14_green_with_BR       9.00       0.00       0.00       0.00       0.00       0.00       0.00        0.00     0.00   0.000
  S01_14_green_with_VS       9.00       0.00       0.00       9.00       0.00       0.00       0.00        0.00     0.00   0.000
  S01_14_roof_no             9.00       0.00       0.00       0.00       8.15       0.00       8.15        0.08     0.03   0.905
  S01_14_roof_with_GR        9.00      29.27       0.00       0.00       0.00       0.00       0.00        0.00     0.00   0.000
  S01_14_rdsq_in_no_PP       9.00       0.00       0.00       0.00       8.56       0.00       8.56        0.05     0.02   0.951
  S01_14_rdsq_in_with_PP       9.00       4.53       0.00       0.00       0.00       0.00       0.00        0.00     0.00   0.000
  S01_15_green_no            9.00       0.00       0.00       9.00       0.00       0.00       0.00        0.00     0.00   0.000
  S01_15_green_with_BR       9.00       0.00       0.00       0.00       0.00       0.00       0.00        0.00     0.00   0.000
  S01_15_green_with_VS       9.00       0.00       0.00       8.94       0.00       0.00       0.00        0.00     0.00   0.001
  S01_15_roof_no             9.00       0.00       0.00       0.00       8.23       0.00       8.23        0.05     0.02   0.914
  S01_15_roof_with_GR        9.00      29.58       0.00       0.00       0.00       0.00       0.00        0.00     0.00   0.000
  S01_15_rdsq_in_no_PP       9.00       0.00       0.00       0.00       8.65       0.00       8.65        0.02     0.01   0.960
  S01_15_rdsq_in_with_PP       9.00       4.58       0.00       0.00       0.00       0.00       0.00        0.00     0.00   0.000
  S01_15_rdsq_out_no_PP       9.00       0.00       0.00       0.00       8.82       0.00       8.82        0.01     0.00   0.980
  S01_15_rdsq_out_with_PP       9.00       4.68       0.00       0.00       0.00       0.00       0.00        0.00     0.00   0.000
  S01_3_green_no             9.00       0.00       0.00       9.00       0.00       0.00       0.00        0.00     0.00   0.000
  S01_3_green_with_BR        9.00       0.00       0.00       0.00       0.00       0.00       0.00        0.00     0.00   0.000
  S01_3_green_with_VS        9.00       0.00       0.00       9.00       0.00       0.00       0.00        0.00     0.00   0.000
  S01_3_rdsq_in              9.00       0.00       0.00       0.00       8.30       0.00       8.30        0.15     0.06   0.922
  S01_4_green_no             9.00       0.00       0.00       9.00       0.00       0.00       0.00        0.00     0.00   0.000
  S01_4_green_with_BR        9.00       0.00       0.00       0.00       0.00       0.00       0.00        0.00     0.00   0.000
  S01_4_green_with_VS        9.00       0.00       0.00       9.00       0.00       0.00       0.00        0.00     0.00   0.000
  S01_4_roof_no              9.00       0.00       0.00       0.00       8.05       0.00       8.05        0.12     0.05   0.894
  S01_4_roof_with_GR         9.00      28.88       0.00       0.00       0.00       0.00       0.00        0.00     0.00   0.000
  S01_4_rdsq_in_no_PP        9.00       0.00       0.00       0.00       8.50       0.00       8.50        0.07     0.04   0.944
  S01_4_rdsq_in_with_PP       9.00       4.50       0.00       0.00       0.00       0.00       0.00        0.00     0.00   0.000
  S01_5_green_no             9.00       0.00       0.00       9.00       0.00       0.00       0.00        0.00     0.00   0.000
  S01_5_green_with_BR        9.00      21.29       0.00       0.00       0.00       0.00       0.00        0.00     0.00   0.000
  S01_5_green_with_VS        9.00       0.00       0.00       9.00       0.00       0.00       0.00        0.00     0.00   0.000
  S01_5_roof_no              9.00       0.00       0.00       0.00       8.34       0.00       8.34        0.03     0.01   0.926
  S01_5_roof_with_GR         9.00      29.99       0.00       0.00      30.00       0.00      30.00        0.03     0.01   0.769
  S01_5_rdsq_in_no_PP        9.00       0.00       0.00       0.00       8.64       0.00       8.64        0.02     0.01   0.960
  S01_5_rdsq_in_with_PP       9.00       4.58       0.00       0.00       0.00       0.00       0.00        0.00     0.00   0.000
  S01_6_green_no             9.00       0.00       0.00       9.00       0.00       0.00       0.00        0.00     0.00   0.000
  S01_6_green_with_BR        9.00       2.13       0.00       0.00       0.00       0.00       0.00        0.00     0.00   0.000
  S01_6_green_with_VS        9.00       2.15       0.00      11.03       0.00       0.00       0.00        0.00     0.00   0.000
  S01_6_roof_no              9.00       0.00       0.00       0.00       8.51       0.00       8.51        0.01     0.00   0.945
  S01_6_roof_with_GR         9.00      30.62       0.00       0.00      30.66       0.00      30.66        0.01     0.00   0.774
  S01_6_rdsq_in_no_PP        9.00       0.00       0.00       0.00       8.64       0.00       8.64        0.02     0.01   0.960
  S01_6_rdsq_in_with_PP       9.00       4.58       0.00       0.00       0.00       0.00       0.00        0.00     0.00   0.000
  S01_6_rdsq_out_no_PP       9.00       0.00       0.00       0.00       8.86       0.00       8.86        0.00     0.00   0.984
  S01_6_rdsq_out_with_PP       9.00       4.70       0.00       0.00       4.72       0.00       4.72        0.00     0.00   0.344
  S01_7_green_no             9.00       2.82       0.00      11.09       0.00       0.00       0.00        0.00     0.00   0.000
  S01_7_green_with_BR        9.00      11.62       0.00       0.01       0.00      11.62      11.62        0.01     0.01   0.563
  S01_7_green_with_VS        9.00      40.40       0.00      11.27       0.00       0.00      33.04        0.01     0.00   0.669
  S01_7_roof_no              9.00       0.00       0.00       0.00       8.46       0.00       8.46        0.01     0.01   0.940
  S01_7_roof_with_GR         9.00      30.46       0.00       0.00      30.48       0.00      30.48        0.01     0.01   0.772
  S01_7_rdsq_in_no_PP        9.00       0.00       0.00       0.00       8.71       0.00       8.71        0.01     0.01   0.967
  S01_7_rdsq_in_with_PP       9.00       4.62       0.00       0.00       0.00       0.00       0.00        0.00     0.00   0.000
  S01_8_green_no             9.00       0.00       0.00       9.01       0.00       0.00       0.00        0.00     0.00   0.000
  S01_8_green_with_BR        9.00      15.41       0.00       0.00       0.00       0.00       0.00        0.00     0.00   0.000
  S01_8_green_with_VS        9.00       0.00       0.00       8.91       0.00       0.00       0.01        0.00     0.00   0.001
  S01_8_roof_no              9.00       0.00       0.00       0.00       8.43       0.00       8.43        0.02     0.01   0.936
  S01_8_roof_with_GR         9.00      30.35       0.00       0.00      30.37       0.00      30.37        0.01     0.01   0.772
  S01_8_rdsq_in_no_PP        9.00       0.00       0.00       0.00       8.69       0.00       8.69        0.01     0.01   0.965
  S01_8_rdsq_in_with_PP       9.00       4.61       0.00       0.00       0.00       0.00       0.00        0.00     0.00   0.000
  S01_9_green_no             9.00       0.00       0.00       9.00       0.00       0.00       0.00        0.00     0.00   0.000
  S01_9_green_with_BR        9.00       0.00       0.00       0.00       0.00       0.00       0.00        0.00     0.00   0.000
  S01_9_green_with_VS        9.00       0.00       0.00       8.99       0.00       0.00       0.00        0.00     0.00   0.000
  S01_9_roof_no              9.00       0.00       0.00       0.00       8.16       0.00       8.16        0.08     0.03   0.906
  S01_9_roof_with_GR         9.00      29.32       0.00       0.00       0.00       0.00       0.00        0.00     0.00   0.000
  S01_9_rdsq_in_no_PP        9.00       0.00       0.00       0.00       8.49       0.00       8.49        0.05     0.02   0.943
  S01_9_rdsq_in_with_PP       9.00       4.49       0.00       0.00       0.00       0.00       0.00        0.00     0.00   0.000
  S01_9_rdsq_out_no_PP       9.00       0.00       0.00       0.00       8.79       0.00       8.79        0.02     0.01   0.977
  S01_9_rdsq_out_with_PP       9.00       4.66       0.00       0.00       0.00       0.00       0.00        0.00     0.00   0.000
  S02_1_green_no             9.00       0.00       0.00       9.00       0.00       0.00       0.00        0.00     0.00   0.000
  S02_1_green_with_BR        9.00       0.00       0.00       0.00       0.00       0.00       0.00        0.00     0.00   0.000
  S02_1_green_with_VS        9.00       0.00       0.00       9.00       0.00       0.00       0.00        0.00     0.00   0.000
  S02_1_roof_no              9.00       0.00       0.00       0.00       8.42       0.00       8.42        0.02     0.01   0.935
  S02_1_roof_with_GR         9.00      30.31       0.00       0.00       0.00       0.00       0.00        0.00     0.00   0.000
  S02_1_rdsq_in_no_PP        9.00       0.00       0.00       0.00       8.61       0.00       8.61        0.06     0.03   0.956
[...]
  L154                         0.076         0.003         0.001         0.000
  L155                         0.000         0.000         0.000         0.000
  L156                         0.000         0.000         0.000         0.000
  L157                         0.036         0.001         0.000         0.000
  L158                         0.000         0.000         0.000         0.000
  L159                         0.040         0.001         0.000         0.000
  L160                         0.525         0.017         0.004         0.003
  L161                         0.000         0.000         0.000         0.000
  L162                         0.037         0.001         0.000         0.000
  L163                         0.000         0.000         0.000         0.000
  L164                         0.000         0.000         0.000         0.000
  L165                         0.868         0.027         0.006         0.005
  L166                         0.000         0.000         0.000         0.000
  L167                         0.812         0.027         0.006         0.005
  L168                         0.789         0.025         0.005         0.004
  L169                         0.023         0.001         0.000         0.000
  L170                         0.000         0.000         0.000         0.000
  L171                         0.874         0.027         0.006         0.005
  L172                         0.004         0.000         0.000         0.000
  L173                         0.040         0.001         0.000         0.000
  L174                         0.752         0.024         0.005         0.004
  L175                         0.039         0.001         0.000         0.000
  L176                         0.722         0.023         0.005         0.004
  L177                         0.013         0.000         0.000         0.000
  L178                         0.380         0.012         0.003         0.002
  L179                         0.625         0.020         0.007         0.003
  L180                        12.567         0.323         0.114         0.057
  L181                        13.094         0.344         0.122         0.061
  L182                         0.012         0.000         0.000         0.000
  L184                         0.032         0.001         0.000         0.000
  L185                         0.589         0.019         0.004         0.003
  L186                         1.319         0.043         0.014         0.007
  L194                         0.000         0.000         0.000         0.000
  L198                         0.678         0.016         0.006         0.003
  L199                         4.409         0.102         0.039         0.019
  L200                         1.898         0.092         0.041         0.041
  L201                        11.268         0.293         0.101         0.052
  L202                         0.714         0.023         0.005         0.004
  L203                         5.358         0.138         0.048         0.024
  L204                         1.585         0.051         0.017         0.009
  L205                         0.773         0.025         0.008         0.004
  L206                         0.814         0.026         0.009         0.005
  L207                         0.022         0.001         0.000         0.000
  L208                         0.854         0.019         0.007         0.004
  L209                         2.873         0.074         0.027         0.013
  L210                         0.338         0.008         0.003         0.001
  L211                         0.000         0.000         0.000         0.000
  L217                         0.981         0.030         0.007         0.005
  L218                         1.471         0.046         0.010         0.008
  L219                         0.725         0.023         0.005         0.004
  L220                         0.000         0.000         0.000         0.000
  L222                         0.000         0.000         0.000         0.000
  L223                         6.912         0.181         0.062         0.032
  L224                         0.807         0.025         0.006         0.004
  L225                         1.549         0.048         0.016         0.008
  L226                         6.934         0.175         0.061         0.031
  L228                         0.000         0.000         0.000         0.000
  L229                         0.000         0.000         0.000         0.000
  L230                         1.307         0.041         0.014         0.007
  L231                         0.000         0.000         0.000         0.000
  L234                         0.028         0.001         0.000         0.000
  L235                         0.023         0.001         0.000         0.000
  L252                         0.000         0.000         0.000         0.000
  L254                         1.238         0.033         0.010         0.006
  L255                         0.042         0.001         0.000         0.000
  L256                         0.002         0.000         0.000         0.000
  L257                         2.400         0.056         0.022         0.010
  L258                         6.834         0.174         0.063         0.031
  L259                         7.252         0.184         0.066         0.033
  L260                         8.110         0.214         0.074         0.038
  L261                         0.874         0.029         0.006         0.005
  L262                         0.161         0.005         0.001         0.001
  L263                         0.000         0.000         0.000         0.000
  L267                        11.623         0.300         0.104         0.053
  L268                        10.323         0.267         0.093         0.047
  L269                        10.614         0.275         0.095         0.049
  L270                         0.545         0.017         0.004         0.003
  L271                         0.909         0.028         0.006         0.005
  L272                         0.714         0.022         0.005         0.004
  L273                         0.876         0.028         0.006         0.005
  L274                         0.005         0.000         0.000         0.000
  L275                         0.304         0.010         0.002         0.002
  L277                        20.504         0.516         0.189         0.092
  L278                        20.862         0.530         0.190         0.094
  L279                        13.325         0.352         0.121         0.063
  L280                        16.670         0.452         0.156         0.080
  L281                        10.694         0.269         0.096         0.048
  L282                         0.574         0.018         0.004         0.003
  L283                        12.318         0.312         0.111         0.056
  L284                         8.048         0.201         0.073         0.036
  L285                         9.567         0.250         0.087         0.044
  L286                         6.412         0.168         0.057         0.030
  L287                         6.454         0.170         0.057         0.030
  L288                         5.917         0.150         0.054         0.027
  L289                         6.314         0.158         0.057         0.028
  L290                         3.753         0.092         0.035         0.016
  L291                         0.001         0.000         0.000         0.000
  L292                         0.262         0.008         0.002         0.001
  L293                         0.002         0.000         0.000         0.000
  L297                         0.000         0.000         0.000         0.000
  L298                        17.204         0.440         0.157         0.078
  L299                         0.000         0.000         0.000         0.000
  L301                         3.264         0.105         0.033         0.018
  L303                         0.000         0.000         0.000         0.000
  L304                         0.000         0.000         0.000         0.000
  L305                         5.491         0.373         0.071         0.024
  L307                         0.000         0.000         0.000         0.000
  L308                         8.810         0.532         0.120         0.044
  L309                         0.000         0.000         0.000         0.000
  L310                         6.701         0.212         0.087         0.060
  L311                        11.296         0.273         0.100         0.049
  L312                         8.110         0.202         0.075         0.036
  L313                         2.171         0.130         0.026         0.010
  L314                         0.482         0.015         0.003         0.003
  L315                         1.662         0.053         0.016         0.009
  L316                         9.317         0.270         0.111         0.073
  L317                         0.751         0.022         0.005         0.004
  L318                         5.976         0.162         0.058         0.029
  L319                         5.875         0.166         0.057         0.029
  L320                         0.000         0.000         0.000         0.000
  L321                         0.000         0.000         0.000         0.000
  L322                         0.032         0.001         0.000         0.000
  L323                         1.205         0.039         0.013         0.007
  L324                         0.302         0.009         0.002         0.002
  L325                         0.263         0.008         0.002         0.001
  L326                         1.604         0.083         0.017         0.008
  L327                         0.515         0.021         0.004         0.003
  L328                         0.740         0.024         0.005         0.004
  L329                         0.248         0.007         0.002         0.001
  L330                         0.774         0.025         0.005         0.004
  L331                         0.019         0.001         0.000         0.000
  L332                         0.926         0.030         0.006         0.005
  L333                         0.041         0.001         0.000         0.000
  L334                         0.020         0.001         0.000         0.000
  L335                         0.011         0.000         0.000         0.000
  L336                         1.617         0.095         0.050         0.049
  L337                         1.594         0.093         0.048         0.048
  L338                         1.604         0.092         0.048         0.048
  L340                         0.049         0.002         0.000         0.000
  L341                         0.045         0.001         0.000         0.000
  L342                         0.040         0.001         0.000         0.000
  L343                         0.028         0.001         0.000         0.000
  L344                         0.897         0.029         0.006         0.005
  L345                         5.809         0.393         0.076         0.025
  L346                         0.892         0.028         0.006         0.005
  L347                         0.271         0.008         0.002         0.001
  L348                         7.796         0.197         0.071         0.035
  L349                         0.001         0.000         0.000         0.000
  L350                         1.148         0.027         0.010         0.005
  L351                         1.562         0.051         0.017         0.009
  L352                         6.804         0.175         0.062         0.031
  L353                         7.357         0.192         0.067         0.034
  L354                         3.429         0.111         0.037         0.019
  L355                         0.560         0.018         0.004         0.003
  L356                         8.423         0.209         0.076         0.037
  L357                         0.030         0.001         0.000         0.000
  L358                         0.011         0.000         0.000         0.000
  L359                         0.000         0.000         0.000         0.000
  L361                         7.196         0.187         0.065         0.033
  L362                         1.909         0.061         0.020         0.011
  L363                         0.039         0.001         0.000         0.000
  L364                        12.457         0.327         0.109         0.058
  L365                         0.002         0.000         0.000         0.000
  L366                         2.152         0.071         0.023         0.012
  L367                         0.041         0.001         0.000         0.000
  L368                         0.000         0.000         0.000         0.000
  L369                         0.063         0.001         0.001         0.000
  L370                         0.000         0.000         0.000         0.000
  L371                         0.000         0.000         0.000         0.000
  L372                         1.536         0.091         0.048         0.047
  L373                         0.029         0.001         0.000         0.000
  L374                         0.757         0.024         0.005         0.004
  L378                         0.000         0.000         0.000         0.000
  L379                         0.045         0.001         0.000         0.000
  L380                         1.666         0.055         0.018         0.009
  L381                         0.000         0.000         0.000         0.000
  L382                         0.933         0.068         0.015         0.005
  L383                         0.000         0.000         0.000         0.000
  L384                         0.000         0.000         0.000         0.000
  L385                         2.146         0.116         0.024         0.010
  L386                         6.580         0.192         0.063         0.032
  L387                         8.953         0.221         0.080         0.039
  L388                         1.585         0.052         0.017         0.009
  L389                        10.169         0.258         0.093         0.046
  L390                        12.176         0.317         0.111         0.056
  L391                         5.712         0.147         0.053         0.026
  L392                         1.249         0.042         0.013         0.007
  L393                         0.274         0.009         0.002         0.002
  L394                        13.196         0.325         0.122         0.058
  L395                        10.303         0.256         0.092         0.046
  L396                         0.000         0.000         0.000         0.000
  L397                         0.000         0.000         0.000         0.000
  L398                         0.000         0.000         0.000         0.000
  L399                         0.000         0.000         0.000         0.000
  L400                         1.428         0.046         0.010         0.008
  L401                         2.286         0.103         0.021         0.012
  L402                         0.000         0.000         0.000         0.000
  L403                         0.391         0.012         0.003         0.002
  L405                         0.000         0.000         0.000         0.000
  L406                         0.000         0.000         0.000         0.000
  L407                         0.058         0.002         0.000         0.000
  L408                         1.382         0.042         0.009         0.007
  L409                         0.636         0.018         0.004         0.003
  L410                         1.870         0.136         0.031         0.011
  L411                         0.000         0.000         0.000         0.000
  L412                         0.029         0.001         0.000         0.000
  L413                         0.000         0.000         0.000         0.000
  L414                         0.901         0.028         0.006         0.005
  L415                         0.002         0.000         0.000         0.000
  L416                         7.402         0.198         0.074         0.045
  L417                         1.578         0.042         0.011         0.008
  L418                         0.041         0.001         0.000         0.000
  L419                         0.000         0.000         0.000         0.000
  L420                         0.000         0.000         0.000         0.000
  L421                         0.000         0.000         0.000         0.000
  L422                         0.782         0.025         0.008         0.004
  L423                         0.000         0.000         0.000         0.000
  L424                         0.000         0.000         0.000         0.000
  L425                         0.638         0.034         0.007         0.003
  L426                         2.670         0.174         0.035         0.013
  L427                         0.000         0.000         0.000         0.000
  L428                         2.209         0.068         0.027         0.018
  L429                         0.925         0.030         0.010         0.005
  L430                         0.905         0.029         0.010         0.005
  L431                         2.483         0.149         0.033         0.012
  L432                         0.020         0.001         0.000         0.000
  L434                         1.007         0.032         0.011         0.006
  L435                         0.001         0.000         0.000         0.000
  L437                        12.495         0.311         0.110         0.056
  L439                        10.771         0.274         0.098         0.049
  L440                         0.000         0.000         0.000         0.000
  L441                         0.899         0.029         0.007         0.005
  L442                         0.802         0.027         0.006         0.004
  L443                         6.756         0.183         0.063         0.032
  L448                         9.568         0.245         0.087         0.043
  L449                         0.689         0.020         0.005         0.004
  L450                         0.715         0.023         0.005         0.004
  L451                         0.772         0.025         0.005         0.004
  L452                        11.684         0.309         0.105         0.054
  L453                         0.000         0.000         0.000         0.000
  L454                         0.000         0.000         0.000         0.000
  L457                         0.000         0.000         0.000         0.000
  L458                         0.000         0.000         0.000         0.000
  L464                        24.577         1.434         0.752         0.742
  L466                        21.829         1.148         0.588         0.576
  L462                         0.671         0.021         0.005         0.004
  L461                         0.006         0.000         0.000         0.000
  L463                         0.829         0.021         0.005         0.004
  L465                        11.025         0.402         0.177         0.160
  L459                         0.000         0.000         0.000         0.000
  L460                         0.000         0.000         0.000         0.000
  

  Analysis begun on:  Thu Dec 23 15:56:47 2021
  Analysis ended on:  Thu Dec 23 15:56:52 2021
  Total elapsed time: 00:00:05