
  EPA STORM WATER MANAGEMENT MODEL - VERSION 5.1 (Build 5.1.013)
  --------------------------------------------------------------

  骞虫睙鏂板煄 
  
  
  *********************
  Rainfall File Summary
  *********************
  Station    First        Last         Recording   Periods    Periods    Periods
  ID         Date         Date         Frequency  w/Precip    Missing    Malfunc.
  -------------------------------------------------------------------------------
  1          01/01/2018   01/01/2018       5 min        24          0          0

  
  *********************************************************
  NOTE: The summary statistics displayed in this report are
  based on results found at every computational time step,  
  not just on results from each reporting time step.
  *********************************************************
  
  ****************
  Analysis Options
  ****************
  Flow Units ............... CMS
  Process Models:
    Rainfall/Runoff ........ YES
    RDII ................... NO
    Snowmelt ............... NO
    Groundwater ............ NO
    Flow Routing ........... YES
    Ponding Allowed ........ YES
    Water Quality .......... YES
  Infiltration Method ...... HORTON
  Flow Routing Method ...... DYNWAVE
  Surcharge Method ......... EXTRAN
  Starting Date ............ 01/01/2018 00:00:00
  Ending Date .............. 01/01/2018 02:00:00
  Antecedent Dry Days ...... 14.0
  Report Time Step ......... 00:05:00
  Wet Time Step ............ 00:05:00
  Dry Time Step ............ 06:00:00
  Routing Time Step ........ 30.00 sec
  Variable Time Step ....... YES
  Maximum Trials ........... 10
  Number of Threads ........ 4
  Head Tolerance ........... 0.001500 m
  
  
  **************************        Volume         Depth
  Runoff Quantity Continuity     hectare-m            mm
  **************************     ---------       -------
  Initial LID Storage ......         1.778         3.557
  Total Precipitation ......         3.029         6.062
  Evaporation Loss .........         0.000         0.000
  Infiltration Loss ........         0.946         1.892
  Surface Runoff ...........         0.106         0.213
  Final Storage ............         3.658         7.319
  Continuity Error (%) .....         2.021
  
  
  **************************           COD            TN         NH4-N            TP
  Runoff Quality Continuity             kg            kg            kg            kg
  **************************    ----------    ----------    ----------    ----------
  Initial Buildup ..........     30241.168      2154.264       635.602       243.157
  Surface Buildup ..........         0.565         0.546         0.003         0.016
  Wet Deposition ...........         0.000         0.000         0.000         0.000
  Sweeping Removal .........         0.000         0.000         0.000         0.000
  Infiltration Loss ........        94.037         4.048         1.173         0.600
  BMP Removal ..............      3624.930       117.354        35.812        24.340
  Surface Runoff ...........       326.802        10.418         3.707         2.429
  Remaining Buildup ........     26132.713      2020.044       594.153       215.222
  Continuity Error (%) .....         0.209         0.137         0.120         0.240
  
  
  **************************        Volume        Volume
  Flow Routing Continuity        hectare-m      10^6 ltr
  **************************     ---------     ---------
  Dry Weather Inflow .......         0.000         0.000
  Wet Weather Inflow .......         0.104         1.040
  Groundwater Inflow .......         0.000         0.000
  RDII Inflow ..............         0.000         0.000
  External Inflow ..........         0.000         0.000
  External Outflow .........         0.079         0.791
  Flooding Loss ............         0.000         0.000
  Evaporation Loss .........         0.000         0.000
  Exfiltration Loss ........         0.000         0.000
  Initial Stored Volume ....         0.041         0.413
  Final Stored Volume ......         0.066         0.660
  Continuity Error (%) .....         0.135
  
  
  **************************           COD            TN         NH4-N            TP
  Quality Routing Continuity            kg            kg            kg            kg
  **************************    ----------    ----------    ----------    ----------
  Dry Weather Inflow .......         0.000         0.000         0.000         0.000
  Wet Weather Inflow .......       320.483        10.141         3.634         2.376
  Groundwater Inflow .......         0.000         0.000         0.000         0.000
  RDII Inflow ..............         0.000         0.000         0.000         0.000
  External Inflow ..........         0.000         0.000         0.000         0.000
  External Outflow .........       200.835         5.887         2.342         1.482
  Flooding Loss ............         0.000         0.000         0.000         0.000
  Exfiltration Loss ........         0.000         0.000         0.000         0.000
  Mass Reacted .............         0.000         0.000         0.000         0.000
  Initial Stored Mass ......         0.000         0.000         0.000         0.000
  Final Stored Mass ........       116.085         4.095         1.182         0.806
  Continuity Error (%) .....         1.112         1.572         3.029         3.739
  
  
  *************************
  Highest Continuity Errors
  *************************
  Node Y78 (100.00%)
  Node Y174 (100.00%)
  Node Y209 (100.00%)
  Node Y211 (100.00%)
  Node Y216 (100.00%)
  
  
  ***************************
  Time-Step Critical Elements
  ***************************
  Link L443 (40.95%)
  Link L466 (28.49%)
  Link L350 (6.45%)
  Link L406 (4.48%)
  Link L392 (3.76%)
  
  
  ********************************
  Highest Flow Instability Indexes
  ********************************
  Link L406 (11)
  Link L422 (9)
  Link L350 (9)
  Link L443 (8)
  Link L416 (8)
  
  
  *************************
  Routing Time Step Summary
  *************************
  Minimum Time Step           :     1.29 sec
  Average Time Step           :     6.45 sec
  Maximum Time Step           :    30.00 sec
  Percent in Steady State     :     0.00
  Average Iterations per Step :     2.03
  Percent Not Converging      :     0.09
  
  
  ***************************
  Subcatchment Runoff Summary
  ***************************
  
  ------------------------------------------------------------------------------------------------------------------------------
                            Total      Total      Total      Total     Imperv       Perv      Total       Total     Peak  Runoff
                           Precip      Runon       Evap      Infil     Runoff     Runoff     Runoff      Runoff   Runoff   Coeff
  Subcatchment                 mm         mm         mm         mm         mm         mm         mm    10^6 ltr      CMS
  ------------------------------------------------------------------------------------------------------------------------------
  RD01_1_rdsq_out_no         6.06       0.00       0.00       0.00       5.85       0.00       5.85        0.01     0.00   0.965
  RD01_1_rdsq_out_with_PP       6.06      41.22       0.00       0.04       0.00       0.00       0.00        0.00     0.00   0.000
  RD01_1_rdsq_out_with_VS       6.06       0.00       0.00       6.03       0.00       0.00       0.00        0.00     0.00   0.000
  RD01_10_rdsq_out_no        6.06       0.00       0.00       0.00       5.83       0.00       5.83        0.02     0.01   0.961
  RD01_10_rdsq_out_with_PP       6.06      40.90       0.00       0.00      40.92       0.00      40.92        0.02     0.01   0.871
  RD01_10_rdsq_out_with_VS       6.06      22.58       0.00      10.14       0.00      22.57      22.63        0.02     0.01   0.790
  RD01_11_rdsq_out_no        6.06       0.00       0.00       0.00       5.84       0.00       5.84        0.01     0.01   0.963
  RD01_11_rdsq_out_with_PP       6.06      40.99       0.00       0.00      41.02       0.00      41.02        0.01     0.01   0.872
  RD01_11_rdsq_out_with_VS       6.06      22.65       0.00      10.07       0.00       0.00       2.82        0.00     0.00   0.098
  RD01_12_rdsq_out_no        6.06       0.00       0.00       0.00       5.82       0.00       5.82        0.02     0.01   0.960
  RD01_12_rdsq_out_with_PP       6.06      40.89       0.00       0.04       0.00       0.00       0.00        0.00     0.00   0.000
  RD01_12_rdsq_out_with_VS       6.06       0.00       0.00       5.34       0.00       0.00       0.01        0.00     0.00   0.002
  RD01_13_rdsq_out_no        6.06       0.00       0.00       0.00       5.83       0.00       5.83        0.02     0.01   0.961
  RD01_13_rdsq_out_with_PP       6.06      40.91       0.00       0.00      40.92       0.00      40.92        0.02     0.01   0.871
  RD01_13_rdsq_out_with_VS       6.06      22.58       0.00      10.13       0.00      22.57      22.61        0.02     0.01   0.790
  RD01_14_rdsq_out_no        6.06       0.00       0.00       0.00       5.84       0.00       5.84        0.01     0.01   0.963
  RD01_14_rdsq_out_with_PP       6.06      41.04       0.00       0.04       0.00       0.00       0.00        0.00     0.00   0.000
  RD01_14_rdsq_out_with_VS       6.06       0.00       0.00       6.03       0.00       0.00       0.00        0.00     0.00   0.000
  RD01_15_rdsq_out_no        6.06       0.00       0.00       0.00       5.84       0.00       5.84        0.01     0.01   0.964
  RD01_15_rdsq_out_with_PP       6.06      41.11       0.00       0.04       0.00       0.00       0.00        0.00     0.00   0.000
  RD01_15_rdsq_out_with_VS       6.06       0.00       0.00       5.34       0.00       0.00       0.02        0.00     0.00   0.004
  RD01_16_rdsq_out_no        6.06       0.00       0.00       0.00       5.85       0.00       5.85        0.01     0.01   0.965
  RD01_16_rdsq_out_with_PP       6.06      41.05       0.00       0.00      41.08       0.00      41.08        0.01     0.01   0.872
  RD01_16_rdsq_out_with_VS       6.06      22.65       0.00      10.14       0.00      22.64      22.73        0.01     0.01   0.792
  RD01_2_rdsq_out_no         6.06       0.00       0.00       0.00       5.85       0.00       5.85        0.01     0.00   0.965
  RD01_2_rdsq_out_with_PP       6.06      40.99       0.00       0.00      41.03       0.00      41.03        0.01     0.00   0.872
  RD01_2_rdsq_out_with_VS       6.06      22.69       0.00      10.07       0.00       0.00       4.95        0.00     0.00   0.172
  RD01_3_rdsq_out_no         6.06       0.00       0.00       0.00       5.82       0.00       5.82        0.03     0.02   0.960
  RD01_3_rdsq_out_with_PP       6.06      40.91       0.00       0.04       0.00       0.00       0.00        0.00     0.00   0.000
  RD01_3_rdsq_out_with_VS       6.06       0.00       0.00       6.03       0.00       0.00       0.00        0.00     0.00   0.000
  RD01_4_rdsq_out_no         6.06       0.00       0.00       0.00       5.82       0.00       5.82        0.04     0.02   0.959
  RD01_4_rdsq_out_with_PP       6.06      40.88       0.00       0.04       0.00       0.00       0.00        0.00     0.00   0.000
  RD01_4_rdsq_out_with_VS       6.06       0.00       0.00       6.03       0.00       0.00       0.00        0.00     0.00   0.000
  RD01_5_rdsq_out_no         6.06       0.00       0.00       0.00       5.84       0.00       5.84        0.01     0.01   0.964
  RD01_5_rdsq_out_with_PP       6.06      41.11       0.00       0.04       0.00       0.00       0.00        0.00     0.00   0.000
  RD01_5_rdsq_out_with_VS       6.06       0.00       0.00       6.03       0.00       0.00       0.00        0.00     0.00   0.000
  RD01_6_rdsq_out_no         6.06       0.00       0.00       0.00       5.84       0.00       5.84        0.01     0.01   0.963
  RD01_6_rdsq_out_with_PP       6.06      41.05       0.00       0.04       0.00       0.00       0.00        0.00     0.00   0.000
  RD01_6_rdsq_out_with_VS       6.06       0.00       0.00       6.03       0.00       0.00       0.00        0.00     0.00   0.000
  RD01_7_rdsq_out_no         6.06       0.00       0.00       0.00       5.82       0.00       5.82        0.01     0.01   0.960
  RD01_7_rdsq_out_with_PP       6.06      40.88       0.00       0.00      40.90       0.00      40.90        0.01     0.01   0.871
  RD01_7_rdsq_out_with_VS       6.06      22.55       0.00      10.06       0.00       0.00       2.73        0.00     0.00   0.095
  RD01_8_rdsq_out_no         6.06       0.00       0.00       0.00       5.83       0.00       5.83        0.01     0.01   0.961
  RD01_8_rdsq_out_with_PP       6.06      40.88       0.00       0.00      40.91       0.00      40.91        0.01     0.01   0.871
  RD01_8_rdsq_out_with_VS       6.06      22.57       0.00      10.14       0.00      22.56      22.63        0.01     0.01   0.790
  RD01_9_rdsq_out_no         6.06       0.00       0.00       0.00       5.83       0.00       5.83        0.02     0.01   0.961
  RD01_9_rdsq_out_with_PP       6.06      40.94       0.00       0.00      40.96       0.00      40.96        0.02     0.01   0.871
  RD01_9_rdsq_out_with_VS       6.06      22.60       0.00      10.06       0.00       0.00       2.27        0.00     0.00   0.079
  RD02_1_rdsq_out_no         6.06       0.00       0.00       0.00       5.83       0.00       5.83        0.02     0.01   0.961
  RD02_1_rdsq_out_with_PP       6.06      40.94       0.00       0.00      40.96       0.00      40.96        0.02     0.01   0.871
  RD02_1_rdsq_out_with_VS       6.06      22.59       0.00      10.07       0.00       0.00       1.58        0.00     0.00   0.055
  RD02_10_rdsq_out_no        6.06       0.00       0.00       0.00       5.83       0.00       5.83        0.03     0.02   0.961
  RD02_10_rdsq_out_with_PP       6.06      40.94       0.00       0.00      40.96       0.00      40.96        0.03     0.02   0.871
  RD02_10_rdsq_out_with_VS       6.06      22.58       0.00      10.06       0.00       0.00       1.20        0.00     0.00   0.042
  RD02_11_rdsq_out_no        6.06       0.00       0.00       0.00       5.83       0.00       5.83        0.02     0.01   0.961
  RD02_11_rdsq_out_with_PP       6.06      40.92       0.00       0.00      40.93       0.00      40.93        0.02     0.01   0.871
  RD02_11_rdsq_out_with_VS       6.06      22.59       0.00      10.06       0.00       0.00       1.80        0.00     0.00   0.063
  RD02_12_rdsq_out_no        6.06       0.00       0.00       0.00       5.83       0.00       5.83        0.02     0.01   0.961
  RD02_12_rdsq_out_with_PP       6.06      40.96       0.00       0.04       0.00       0.00       0.00        0.00     0.00   0.000
  RD02_12_rdsq_out_with_VS       6.06       0.00       0.00       5.34       0.00       0.00       0.01        0.00     0.00   0.002
  RD02_13_rdsq_out_no        6.06       0.00       0.00       0.00       5.84       0.00       5.84        0.01     0.00   0.963
  RD02_13_rdsq_out_with_PP       6.06      41.07       0.00       0.04       0.00       0.00       0.00        0.00     0.00   0.000
  RD02_13_rdsq_out_with_VS       6.06       0.00       0.00       5.34       0.00       0.00       0.03        0.00     0.00   0.004
  RD02_14_rdsq_out_no        6.06       0.00       0.00       0.00       5.83       0.00       5.83        0.01     0.01   0.962
  RD02_14_rdsq_out_with_PP       6.06      40.95       0.00       0.00      40.98       0.00      40.98        0.01     0.01   0.872
  RD02_14_rdsq_out_with_VS       6.06      22.63       0.00      10.06       0.00       0.00       3.45        0.00     0.00   0.120
  RD02_15_rdsq_out_no        6.06       0.00       0.00       0.00       5.85       0.00       5.85        0.01     0.01   0.965
  RD02_15_rdsq_out_with_PP       6.06      41.13       0.00       0.04       0.00       0.00       0.00        0.00     0.00   0.000
  RD02_15_rdsq_out_with_VS       6.06       0.00       0.00       5.34       0.00       0.00       0.02        0.00     0.00   0.003
  RD02_16_rdsq_out_no        6.06       0.00       0.00       0.00       5.85       0.00       5.85        0.01     0.01   0.964
  RD02_16_rdsq_out_with_PP       6.06      41.07       0.00       0.00      41.09       0.00      41.09        0.01     0.01   0.872
  RD02_16_rdsq_out_with_VS       6.06      22.67       0.00      10.14       0.00      22.66      22.73        0.01     0.01   0.791
  RD02_17_rdsq_out_no        6.06       0.00       0.00       0.00       5.84       0.00       5.84        0.02     0.01   0.963
  RD02_17_rdsq_out_with_PP       6.06      41.04       0.00       0.04       0.00       0.00       0.00        0.00     0.00   0.000
  RD02_17_rdsq_out_with_VS       6.06       0.00       0.00       5.34       0.00       0.00       0.01        0.00     0.00   0.002
  RD02_18_rdsq_out_no        6.06       0.00       0.00       0.00       5.86       0.00       5.86        0.01     0.00   0.966
  RD02_18_rdsq_out_with_PP       6.06      41.18       0.00       0.04       0.00       0.00       0.00        0.00     0.00   0.000
  RD02_18_rdsq_out_with_VS       6.06       0.00       0.00       5.34       0.00       0.00       0.03        0.00     0.00   0.004
  RD02_19_rdsq_out_no        6.06       0.00       0.00       0.00       5.84       0.00       5.84        0.01     0.01   0.963
  RD02_19_rdsq_out_with_PP       6.06      40.98       0.00       0.00      41.00       0.00      41.00        0.01     0.01   0.872
  RD02_19_rdsq_out_with_VS       6.06      22.64       0.00      10.14       0.00      22.63      22.70        0.01     0.01   0.791
  RD02_2_rdsq_out_no         6.06       0.00       0.00       0.00       5.82       0.00       5.82        0.03     0.01   0.961
  RD02_2_rdsq_out_with_PP       6.06      40.92       0.00       0.00      40.93       0.00      40.93        0.03     0.01   0.871
  RD02_2_rdsq_out_with_VS       6.06      22.58       0.00      10.06       0.00       0.00       1.45        0.00     0.00   0.051
  RD02_20_rdsq_out_no        6.06       0.00       0.00       0.00       5.84       0.00       5.84        0.01     0.01   0.963
  RD02_20_rdsq_out_with_PP       6.06      41.06       0.00       0.04       0.00       0.00       0.00        0.00     0.00   0.000
  RD02_20_rdsq_out_with_VS       6.06       0.00       0.00       6.03       0.00       0.00       0.00        0.00     0.00   0.000
  RD02_21_rdsq_out_no        6.06       0.00       0.00       0.00       5.83       0.00       5.83        0.02     0.01   0.961
  RD02_21_rdsq_out_with_PP       6.06      40.92       0.00       0.00      40.94       0.00      40.94        0.02     0.01   0.871
  RD02_21_rdsq_out_with_VS       6.06      22.57       0.00      10.14       0.00      22.56      22.62        0.02     0.01   0.790
  RD02_22_rdsq_out_no        6.06       0.00       0.00       0.00       5.82       0.00       5.82        0.02     0.01   0.961
  RD02_22_rdsq_out_with_PP       6.06      40.92       0.00       0.00      40.93       0.00      40.93        0.02     0.01   0.871
  RD02_22_rdsq_out_with_VS       6.06      22.58       0.00      10.06       0.00       0.00       2.17        0.00     0.00   0.076
  RD02_3_rdsq_out_no         6.06       0.00       0.00       0.00       5.83       0.00       5.83        0.02     0.01   0.961
  RD02_3_rdsq_out_with_PP       6.06      40.92       0.00       0.00      40.93       0.00      40.93        0.02     0.01   0.871
  RD02_3_rdsq_out_with_VS       6.06      22.59       0.00      10.13       0.00      22.58      22.63        0.02     0.01   0.790
  RD02_4_rdsq_out_no         6.06       0.00       0.00       0.00       5.82       0.00       5.82        0.02     0.01   0.961
  RD02_4_rdsq_out_with_PP       6.06      40.94       0.00       0.04       0.00       0.00       0.00        0.00     0.00   0.000
  RD02_4_rdsq_out_with_VS       6.06       0.00       0.00       6.03       0.00       0.00       0.00        0.00     0.00   0.000
  RD02_5_rdsq_out_no         6.06       0.00       0.00       0.00       5.84       0.00       5.84        0.02     0.01   0.963
  RD02_5_rdsq_out_with_PP       6.06      40.98       0.00       0.00      41.00       0.00      41.00        0.02     0.01   0.872
  RD02_5_rdsq_out_with_VS       6.06      22.64       0.00      10.07       0.00       0.00       2.39        0.00     0.00   0.083
  RD02_6_rdsq_out_no         6.06       0.00       0.00       0.00       5.85       0.00       5.85        0.02     0.01   0.966
  RD02_6_rdsq_out_with_PP       6.06      41.10       0.00       0.00      41.12       0.00      41.12        0.02     0.01   0.872
  RD02_6_rdsq_out_with_VS       6.06      22.71       0.00      10.07       0.00       0.00       2.40        0.00     0.00   0.083
  RD02_7_rdsq_out_no         6.06       0.00       0.00       0.00       5.85       0.00       5.85        0.01     0.01   0.965
  RD02_7_rdsq_out_with_PP       6.06      41.07       0.00       0.00      41.10       0.00      41.10        0.01     0.01   0.872
  RD02_7_rdsq_out_with_VS       6.06      22.70       0.00      10.07       0.00       0.00       3.53        0.00     0.00   0.123
  RD02_8_rdsq_out_no         6.06       0.00       0.00       0.00       5.84       0.00       5.84        0.01     0.01   0.964
  RD02_8_rdsq_out_with_PP       6.06      41.04       0.00       0.00      41.07       0.00      41.07        0.01     0.01   0.872
  RD02_8_rdsq_out_with_VS       6.06      22.66       0.00      10.07       0.00       0.00       2.53        0.00     0.00   0.088
  RD02_9_rdsq_out_no         6.06       0.00       0.00       0.00       5.82       0.00       5.82        0.03     0.02   0.961
  RD02_9_rdsq_out_with_PP       6.06      40.94       0.00       0.04       0.00       0.00       0.00        0.00     0.00   0.000
  RD02_9_rdsq_out_with_VS       6.06       0.00       0.00       6.03       0.00       0.00       0.00        0.00     0.00   0.000
  RD03_1_rdsq_out_no         6.06       0.00       0.00       0.00       5.83       0.00       5.83        0.03     0.02   0.961
  RD03_1_rdsq_out_with_PP       6.06      40.95       0.00       0.04       0.00       0.00       0.00        0.00     0.00   0.000
  RD03_1_rdsq_out_with_VS       6.06       0.00       0.00       6.03       0.00       0.00       0.00        0.00     0.00   0.000
  RD03_10_rdsq_out_no        6.06       0.00       0.00       0.00       5.82       0.00       5.82        0.02     0.01   0.960
  RD03_10_rdsq_out_with_PP       6.06      40.89       0.00       0.04       0.00       0.00       0.00        0.00     0.00   0.000
  RD03_10_rdsq_out_with_VS       6.06       0.00       0.00       6.03       0.00       0.00       0.00        0.00     0.00   0.000
  RD03_2_rdsq_out_no         6.06       0.00       0.00       0.00       5.82       0.00       5.82        0.03     0.02   0.961
  RD03_2_rdsq_out_with_PP       6.06      40.93       0.00       0.04       0.00       0.00       0.00        0.00     0.00   0.000
  RD03_2_rdsq_out_with_VS       6.06       0.00       0.00       6.03       0.00       0.00       0.00        0.00     0.00   0.000
  RD03_3_rdsq_out_no         6.06       0.00       0.00       0.00       5.80       0.00       5.80        0.03     0.02   0.957
  RD03_3_rdsq_out_with_PP       6.06      40.73       0.00       0.00      40.74       0.00      40.74        0.03     0.02   0.871
  RD03_3_rdsq_out_with_VS       6.06      22.47       0.00      10.06       0.00       0.00       1.18        0.00     0.00   0.041
  RD03_4_rdsq_out_no         6.06       0.00       0.00       0.00       5.80       0.00       5.80        0.03     0.02   0.956
  RD03_4_rdsq_out_with_PP       6.06      40.72       0.00       0.00      40.73       0.00      40.73        0.03     0.02   0.871
  RD03_4_rdsq_out_with_VS       6.06      22.45       0.00      10.05       0.00       0.00       1.17        0.00     0.00   0.041
  RD03_5_rdsq_out_no         6.06       0.00       0.00       0.00       5.83       0.00       5.83        0.02     0.01   0.962
  RD03_5_rdsq_out_with_PP       6.06      41.00       0.00       0.00      41.01       0.00      41.01        0.02     0.01   0.872
  RD03_5_rdsq_out_with_VS       6.06      22.60       0.00      10.13       0.00      22.60      22.64        0.02     0.01   0.790
  RD03_6_rdsq_out_no         6.06       0.00       0.00       0.00       5.83       0.00       5.83        0.02     0.01   0.963
  RD03_6_rdsq_out_with_PP       6.06      41.00       0.00       0.00      41.01       0.00      41.01        0.02     0.01   0.872
  RD03_6_rdsq_out_with_VS       6.06      22.62       0.00      10.07       0.00       0.00       1.67        0.00     0.00   0.058
  RD03_7_rdsq_out_no         6.06       0.00       0.00       0.00       5.84       0.00       5.84        0.02     0.01   0.963
  RD03_7_rdsq_out_with_PP       6.06      41.02       0.00       0.04       0.00       0.00       0.00        0.00     0.00   0.000
  RD03_7_rdsq_out_with_VS       6.06       0.00       0.00       5.34       0.00       0.00       0.01        0.00     0.00   0.002
  RD03_8_rdsq_out_no         6.06       0.00       0.00       0.00       5.83       0.00       5.83        0.03     0.01   0.962
  RD03_8_rdsq_out_with_PP       6.06      40.97       0.00       0.00      40.98       0.00      40.98        0.02     0.01   0.871
  RD03_8_rdsq_out_with_VS       6.06      22.60       0.00      10.06       0.00       0.00       1.55        0.00     0.00   0.054
  RD03_9_rdsq_out_no         6.06       0.00       0.00       0.00       5.83       0.00       5.83        0.02     0.01   0.961
  RD03_9_rdsq_out_with_PP       6.06      40.96       0.00       0.04       0.00       0.00       0.00        0.00     0.00   0.000
  RD03_9_rdsq_out_with_VS       6.06       0.00       0.00       6.03       0.00       0.00       0.00        0.00     0.00   0.000
  RD04_1_rdsq_out_no         6.06       0.00       0.00       0.00       5.85       0.00       5.85        0.01     0.01   0.965
  RD04_1_rdsq_out_with_PP       6.06      41.16       0.00       0.04       0.00       0.00       0.00        0.00     0.00   0.000
  RD04_1_rdsq_out_with_VS       6.06       0.00       0.00       5.34       0.00       0.00       0.02        0.00     0.00   0.003
  RD04_10_rdsq_out_no        6.06       0.00       0.00       0.00       5.84       0.00       5.84        0.02     0.01   0.963
  RD04_10_rdsq_out_with_PP       6.06      40.98       0.00       0.00      41.00       0.00      41.00        0.02     0.01   0.872
  RD04_10_rdsq_out_with_VS       6.06      22.64       0.00      10.13       0.00      22.63      22.68        0.02     0.01   0.790
  RD04_11_rdsq_out_no        6.06       0.00       0.00       0.00       5.84       0.00       5.84        0.03     0.02   0.963
  RD04_11_rdsq_out_with_PP       6.06      41.01       0.00       0.00      41.02       0.00      41.02        0.03     0.02   0.872
  RD04_11_rdsq_out_with_VS       6.06      22.63       0.00      10.07       0.00       0.00       1.30        0.00     0.00   0.045
  RD04_12_rdsq_out_no        6.06       0.00       0.00       0.00       5.82       0.00       5.82        0.03     0.02   0.961
  RD04_12_rdsq_out_with_PP       6.06      40.90       0.00       0.00      40.91       0.00      40.91        0.03     0.02   0.871
  RD04_12_rdsq_out_with_VS       6.06      22.57       0.00      10.06       0.00       0.00       1.17        0.00     0.00   0.041
  RD04_2_rdsq_out_no         6.06       0.00       0.00       0.00       5.83       0.00       5.83        0.03     0.01   0.962
  RD04_2_rdsq_out_with_PP       6.06      41.00       0.00       0.04       0.00       0.00       0.00        0.00     0.00   0.000
  RD04_2_rdsq_out_with_VS       6.06       0.00       0.00       6.03       0.00       0.00       0.00        0.00     0.00   0.000
  RD04_3_rdsq_out_no         6.06       0.00       0.00       0.00       5.82       0.00       5.82        0.03     0.01   0.960
  RD04_3_rdsq_out_with_PP       6.06      40.93       0.00       0.04       0.00       0.00       0.00        0.00     0.00   0.000
  RD04_3_rdsq_out_with_VS       6.06       0.00       0.00       6.03       0.00       0.00       0.00        0.00     0.00   0.000
  RD04_4_rdsq_out_no         6.06       0.00       0.00       0.00       5.82       0.00       5.82        0.03     0.01   0.960
  RD04_4_rdsq_out_with_PP       6.06      40.92       0.00       0.04       0.00       0.00       0.00        0.00     0.00   0.000
  RD04_4_rdsq_out_with_VS       6.06       0.00       0.00       6.03       0.00       0.00       0.00        0.00     0.00   0.000
  RD04_5_rdsq_out_no         6.06       0.00       0.00       0.00       5.84       0.00       5.84        0.04     0.02   0.963
  RD04_5_rdsq_out_with_PP       6.06      41.03       0.00       0.00      41.04       0.00      41.04        0.03     0.02   0.871
  RD04_5_rdsq_out_with_VS       6.06      22.64       0.00      10.06       0.00       0.00       1.13        0.00     0.00   0.040
  RD04_6_rdsq_out_no         6.06       0.00       0.00       0.00       5.84       0.00       5.84        0.03     0.02   0.963
  RD04_6_rdsq_out_with_PP       6.06      41.04       0.00       0.04       0.00       0.00       0.00        0.00     0.00   0.000
  RD04_6_rdsq_out_with_VS       6.06       0.00       0.00       6.03       0.00       0.00       0.00        0.00     0.00   0.000
  RD04_7_rdsq_out_no         6.06       0.00       0.00       0.00       5.83       0.00       5.83        0.02     0.01   0.962
  RD04_7_rdsq_out_with_PP       6.06      41.03       0.00       0.04       0.00       0.00       0.00        0.00     0.00   0.000
  RD04_7_rdsq_out_with_VS       6.06       0.00       0.00       6.03       0.00       0.00       0.00        0.00     0.00   0.000
  RD04_8_rdsq_out_no         6.06       0.00       0.00       0.00       5.82       0.00       5.82        0.02     0.01   0.959
  RD04_8_rdsq_out_with_PP       6.06      40.90       0.00       0.04       0.00       0.00       0.00        0.00     0.00   0.000
  RD04_8_rdsq_out_with_VS       6.06       0.00       0.00       5.34       0.00       0.00       0.01        0.00     0.00   0.002
  RD04_9_rdsq_out_no         6.06       0.00       0.00       0.00       5.84       0.00       5.84        0.02     0.01   0.963
  RD04_9_rdsq_out_with_PP       6.06      41.04       0.00       0.04       0.00       0.00       0.00        0.00     0.00   0.000
  RD04_9_rdsq_out_with_VS       6.06       0.00       0.00       5.34       0.00       0.00       0.01        0.00     0.00   0.002
  RD05_1_rdsq_out_no         6.06       0.00       0.00       0.00       5.84       0.00       5.84        0.02     0.01   0.964
  RD05_1_rdsq_out_with_PP       6.06      41.04       0.00       0.00      41.06       0.00      41.06        0.02     0.01   0.872
  RD05_1_rdsq_out_with_VS       6.06      22.65       0.00      10.07       0.00       0.00       1.81        0.00     0.00   0.063
  RD05_10_rdsq_out_no        6.06       0.00       0.00       0.00       5.85       0.00       5.85        0.01     0.01   0.965
  RD05_10_rdsq_out_with_PP       6.06      41.10       0.00       0.00      41.13       0.00      41.13        0.01     0.01   0.872
  RD05_10_rdsq_out_with_VS       6.06      22.72       0.00      10.07       0.00       0.00       2.89        0.00     0.00   0.101
  RD05_11_rdsq_out_no        6.06       0.00       0.00       0.00       5.86       0.00       5.86        0.01     0.00   0.967
  RD05_11_rdsq_out_with_PP       6.06      41.18       0.00       0.00      41.22       0.00      41.22        0.01     0.00   0.873
  RD05_11_rdsq_out_with_VS       6.06      22.76       0.00      10.07       0.00       0.00       4.65        0.00     0.00   0.161
  RD05_12_rdsq_out_no        6.06       0.00       0.00       0.00       5.86       0.00       5.86        0.01     0.00   0.967
  RD05_12_rdsq_out_with_PP       6.06      41.19       0.00       0.00      41.23       0.00      41.23        0.01     0.00   0.873
  RD05_12_rdsq_out_with_VS       6.06      22.77       0.00      10.07       0.00       0.00       4.65        0.00     0.00   0.161
  RD05_13_rdsq_out_no        6.06       0.00       0.00       0.00       5.84       0.00       5.84        0.02     0.01   0.963
  RD05_13_rdsq_out_with_PP       6.06      41.00       0.00       0.00      41.02       0.00      41.02        0.02     0.01   0.872
  RD05_13_rdsq_out_with_VS       6.06      22.61       0.00      10.13       0.00      22.61      22.65        0.02     0.01   0.790
  RD05_14_rdsq_out_no        6.06       0.00       0.00       0.00       5.84       0.00       5.84        0.02     0.01   0.964
  RD05_14_rdsq_out_with_PP       6.06      41.05       0.00       0.00      41.06       0.00      41.06        0.02     0.01   0.872
  RD05_14_rdsq_out_with_VS       6.06      22.66       0.00      10.07       0.00       0.00       1.61        0.00     0.00   0.056
  RD05_15_rdsq_out_no        6.06       0.00       0.00       0.00       5.84       0.00       5.84        0.01     0.01   0.964
  RD05_15_rdsq_out_with_PP       6.06      40.96       0.00       0.00      40.99       0.00      40.99        0.01     0.01   0.872
  RD05_15_rdsq_out_with_VS       6.06      22.69       0.00      10.07       0.00       0.00       3.82        0.00     0.00   0.133
  RD05_16_rdsq_out_no        6.06       0.00       0.00       0.00       5.83       0.00       5.83        0.01     0.01   0.962
  RD05_16_rdsq_out_with_PP       6.06      40.89       0.00       0.00      40.92       0.00      40.92        0.01     0.01   0.872
  RD05_16_rdsq_out_with_VS       6.06      22.63       0.00      10.06       0.00       0.00       3.65        0.00     0.00   0.127
  RD05_17_rdsq_out_no        6.06       0.00       0.00       0.00       5.83       0.00       5.83        0.01     0.00   0.962
  RD05_17_rdsq_out_with_PP       6.06      40.90       0.00       0.00      40.93       0.00      40.93        0.01     0.00   0.872
  RD05_17_rdsq_out_with_VS       6.06      22.64       0.00      10.06       0.00       0.00       3.91        0.00     0.00   0.136
  RD05_18_rdsq_out_no        6.06       0.00       0.00       0.00       5.84       0.00       5.84        0.01     0.01   0.963
  RD05_18_rdsq_out_with_PP       6.06      41.09       0.00       0.04       0.00       0.00       0.00        0.00     0.00   0.000
  RD05_18_rdsq_out_with_VS       6.06       0.00       0.00       5.34       0.00       0.00       0.03        0.00     0.00   0.004
  RD05_19_rdsq_out_no        6.06       0.00       0.00       0.00       5.85       0.00       5.85        0.01     0.01   0.965
  RD05_19_rdsq_out_with_PP       6.06      41.09       0.00       0.00      41.12       0.00      41.12        0.01     0.01   0.872
  RD05_19_rdsq_out_with_VS       6.06      22.69       0.00      10.07       0.00       0.00       3.75        0.00     0.00   0.130
  RD05_2_rdsq_out_no         6.06       0.00       0.00       0.00       5.80       0.00       5.80        0.02     0.01   0.958
  RD05_2_rdsq_out_with_PP       6.06      40.76       0.00       0.00      40.78       0.00      40.78        0.02     0.01   0.871
  RD05_2_rdsq_out_with_VS       6.06      22.48       0.00      10.05       0.00       0.00       1.62        0.00     0.00   0.057
  RD05_20_rdsq_out_no        6.06       0.00       0.00       0.00       5.83       0.00       5.83        0.01     0.01   0.962
  RD05_20_rdsq_out_with_PP       6.06      41.04       0.00       0.04       0.00       0.00       0.00        0.00     0.00   0.000
  RD05_20_rdsq_out_with_VS       6.06       0.00       0.00       6.03       0.00       0.00       0.00        0.00     0.00   0.000
  RD05_21_rdsq_out_no        6.06       0.00       0.00       0.00       5.85       0.00       5.85        0.01     0.00   0.965
  RD05_21_rdsq_out_with_PP       6.06      41.17       0.00       0.04       0.00       0.00       0.00        0.00     0.00   0.000
  RD05_21_rdsq_out_with_VS       6.06       0.00       0.00       5.34       0.00       0.00       0.04        0.00     0.00   0.006
  RD05_22_rdsq_out_no        6.06       0.00       0.00       0.00       5.86       0.00       5.86        0.01     0.00   0.966
  RD05_22_rdsq_out_with_PP       6.06      41.23       0.00       0.04       0.00       0.00       0.00        0.00     0.00   0.000
  RD05_22_rdsq_out_with_VS       6.06       0.00       0.00       6.03       0.00       0.00       0.00        0.00     0.00   0.000
  RD05_23_rdsq_out_no        6.06       0.00       0.00       0.00       5.84       0.00       5.84        0.01     0.01   0.964
  RD05_23_rdsq_out_with_PP       6.06      41.03       0.00       0.00      41.06       0.00      41.06        0.01     0.01   0.872
  RD05_23_rdsq_out_with_VS       6.06      22.63       0.00      10.14       0.00      22.61      22.71        0.01     0.01   0.791
  RD05_24_rdsq_out_no        6.06       0.00       0.00       0.00       5.84       0.00       5.84        0.01     0.01   0.964
  RD05_24_rdsq_out_with_PP       6.06      40.99       0.00       0.00      41.02       0.00      41.02        0.01     0.01   0.872
  RD05_24_rdsq_out_with_VS       6.06      22.65       0.00      10.07       0.00       0.00       3.51        0.00     0.00   0.122
  RD05_25_rdsq_out_no        6.06       0.00       0.00       0.00       5.85       0.00       5.85        0.01     0.00   0.965
  RD05_25_rdsq_out_with_PP       6.06      41.16       0.00       0.04       0.00       0.00       0.00        0.00     0.00   0.000
  RD05_25_rdsq_out_with_VS       6.06       0.00       0.00       6.03       0.00       0.00       0.00        0.00     0.00   0.000
  RD05_26_rdsq_out_no        6.06       0.00       0.00       0.00       5.86       0.00       5.86        0.01     0.00   0.966
  RD05_26_rdsq_out_with_PP       6.06      41.18       0.00       0.04       0.00       0.00       0.00        0.00     0.00   0.000
  RD05_26_rdsq_out_with_VS       6.06       0.00       0.00       6.03       0.00       0.00       0.00        0.00     0.00   0.000
  RD05_3_rdsq_out_no         6.06       0.00       0.00       0.00       5.83       0.00       5.83        0.02     0.01   0.961
  RD05_3_rdsq_out_with_PP       6.06      40.96       0.00       0.04       0.00       0.00       0.00        0.00     0.00   0.000
  RD05_3_rdsq_out_with_VS       6.06       0.00       0.00       6.03       0.00       0.00       0.00        0.00     0.00   0.000
  RD05_4_rdsq_out_no         6.06       0.00       0.00       0.00       5.80       0.00       5.80        0.02     0.01   0.957
  RD05_4_rdsq_out_with_PP       6.06      40.77       0.00       0.04       0.00       0.00       0.00        0.00     0.00   0.000
  RD05_4_rdsq_out_with_VS       6.06       0.00       0.00       6.03       0.00       0.00       0.00        0.00     0.00   0.000
  RD05_5_rdsq_out_no         6.06       0.00       0.00       0.00       5.86       0.00       5.86        0.01     0.01   0.967
  RD05_5_rdsq_out_with_PP       6.06      41.16       0.00       0.00      41.19       0.00      41.19        0.01     0.01   0.872
  RD05_5_rdsq_out_with_VS       6.06      22.76       0.00      10.07       0.00       0.00       3.62        0.00     0.00   0.126
  RD05_6_rdsq_out_no         6.06       0.00       0.00       0.00       5.84       0.00       5.84        0.01     0.01   0.964
  RD05_6_rdsq_out_with_PP       6.06      41.05       0.00       0.00      41.08       0.00      41.08        0.01     0.01   0.872
  RD05_6_rdsq_out_with_VS       6.06      22.65       0.00      10.14       0.00      22.64      22.73        0.01     0.01   0.792
  RD05_7_rdsq_out_no         6.06       0.00       0.00       0.00       5.86       0.00       5.86        0.01     0.00   0.968
  RD05_7_rdsq_out_with_PP       6.06      41.21       0.00       0.00      41.25       0.00      41.25        0.01     0.00   0.873
  RD05_7_rdsq_out_with_VS       6.06      22.78       0.00      10.07       0.00       0.00       5.18        0.00     0.00   0.179
  RD05_8_rdsq_out_no         6.06       0.00       0.00       0.00       5.86       0.00       5.86        0.01     0.00   0.967
  RD05_8_rdsq_out_with_PP       6.06      41.22       0.00       0.00      41.26       0.00      41.26        0.01     0.00   0.873
  RD05_8_rdsq_out_with_VS       6.06      22.80       0.00      10.07       0.00       0.00       5.31        0.00     0.00   0.184
  RD05_9_rdsq_out_no         6.06       0.00       0.00       0.00       5.84       0.00       5.84        0.01     0.01   0.964
  RD05_9_rdsq_out_with_PP       6.06      41.03       0.00       0.00      41.05       0.00      41.05        0.01     0.01   0.872
  RD05_9_rdsq_out_with_VS       6.06      22.66       0.00      10.14       0.00      22.65      22.72        0.01     0.01   0.791
  RD06_1_rdsq_out_no         6.06       0.00       0.00       0.00       5.85       0.00       5.85        0.01     0.01   0.966
  RD06_1_rdsq_out_with_PP       6.06      41.13       0.00       0.04       0.00       0.00       0.00        0.00     0.00   0.000
  RD06_1_rdsq_out_with_VS       6.06       0.00       0.00       6.03       0.00       0.00       0.00        0.00     0.00   0.000
  RD06_10_rdsq_out_no        6.06       0.00       0.00       0.00       5.83       0.00       5.83        0.02     0.01   0.961
  RD06_10_rdsq_out_with_PP       6.06      40.96       0.00       0.04       0.00       0.00       0.00        0.00     0.00   0.000
  RD06_10_rdsq_out_with_VS       6.06       0.00       0.00       6.03       0.00       0.00       0.00        0.00     0.00   0.000
  RD06_11_rdsq_out_no        6.06       0.00       0.00       0.00       5.83       0.00       5.83        0.02     0.01   0.962
  RD06_11_rdsq_out_with_PP       6.06      41.01       0.00       0.04       0.00       0.00       0.00        0.00     0.00   0.000
  RD06_11_rdsq_out_with_VS       6.06       0.00       0.00       6.03       0.00       0.00       0.00        0.00     0.00   0.000
  RD06_12_rdsq_out_no        6.06       0.00       0.00       0.00       5.83       0.00       5.83        0.02     0.01   0.961
  RD06_12_rdsq_out_with_PP       6.06      40.97       0.00       0.04       0.00       0.00       0.00        0.00     0.00   0.000
  RD06_12_rdsq_out_with_VS       6.06       0.00       0.00       5.34       0.00       0.00       0.01        0.00     0.00   0.002
  RD06_13_rdsq_out_no        6.06       0.00       0.00       0.00       5.85       0.00       5.85        0.01     0.01   0.965
  RD06_13_rdsq_out_with_PP       6.06      41.07       0.00       0.00      41.10       0.00      41.10        0.01     0.01   0.872
  RD06_13_rdsq_out_with_VS       6.06      22.67       0.00      10.14       0.00      22.66      22.75        0.01     0.01   0.792
  RD06_14_rdsq_out_no        6.06       0.00       0.00       0.00       5.85       0.00       5.85        0.01     0.01   0.965
  RD06_14_rdsq_out_with_PP       6.06      41.03       0.00       0.00      41.06       0.00      41.06        0.01     0.01   0.872
  RD06_14_rdsq_out_with_VS       6.06      22.70       0.00      10.07       0.00       0.00       3.11        0.00     0.00   0.108
  RD06_15_rdsq_out_no        6.06       0.00       0.00       0.00       5.82       0.00       5.82        0.03     0.01   0.961
  RD06_15_rdsq_out_with_PP       6.06      40.90       0.00       0.00      40.91       0.00      40.91        0.03     0.01   0.871
  RD06_15_rdsq_out_with_VS       6.06      22.57       0.00      10.06       0.00       0.00       1.49        0.00     0.00   0.052
  RD06_16_rdsq_out_no        6.06       0.00       0.00       0.00       5.82       0.00       5.82        0.03     0.02   0.960
  RD06_16_rdsq_out_with_PP       6.06      40.88       0.00       0.00      40.89       0.00      40.89        0.03     0.02   0.871
  RD06_16_rdsq_out_with_VS       6.06      22.56       0.00      10.06       0.00       0.00       1.20        0.00     0.00   0.042
  RD06_17_rdsq_out_no        6.06       0.00       0.00       0.00       5.83       0.00       5.83        0.02     0.01   0.962
  RD06_17_rdsq_out_with_PP       6.06      40.99       0.00       0.04       0.00       0.00       0.00        0.00     0.00   0.000
  RD06_17_rdsq_out_with_VS       6.06       0.00       0.00       6.03       0.00       0.00       0.00        0.00     0.00   0.000
  RD06_18_rdsq_out_no        6.06       0.00       0.00       0.00       5.84       0.00       5.84        0.02     0.01   0.963
  RD06_18_rdsq_out_with_PP       6.06      40.99       0.00       0.00      41.01       0.00      41.01        0.02     0.01   0.872
  RD06_18_rdsq_out_with_VS       6.06      22.62       0.00      10.13       0.00      22.62      22.67        0.02     0.01   0.790
  RD06_19_rdsq_out_no        6.06       0.00       0.00       0.00       5.84       0.00       5.84        0.01     0.01   0.963
  RD06_19_rdsq_out_with_PP       6.06      41.01       0.00       0.00      41.04       0.00      41.04        0.01     0.01   0.872
  RD06_19_rdsq_out_with_VS       6.06      22.67       0.00      10.07       0.00       0.00       2.92        0.00     0.00   0.102
  RD06_2_rdsq_out_no         6.06       0.00       0.00       0.00       5.85       0.00       5.85        0.01     0.01   0.966
  RD06_2_rdsq_out_with_PP       6.06      41.13       0.00       0.00      41.15       0.00      41.15        0.01     0.01   0.872
  RD06_2_rdsq_out_with_VS       6.06      22.73       0.00      10.07       0.00       0.00       2.97        0.00     0.00   0.103
  RD06_20_rdsq_out_no        6.06       0.00       0.00       0.00       5.84       0.00       5.84        0.01     0.01   0.964
  RD06_20_rdsq_out_with_PP       6.06      41.09       0.00       0.04       0.00       0.00       0.00        0.00     0.00   0.000
  RD06_20_rdsq_out_with_VS       6.06       0.00       0.00       6.03       0.00       0.00       0.00        0.00     0.00   0.000
  RD06_21_rdsq_out_no        6.06       0.00       0.00       0.00       5.85       0.00       5.85        0.01     0.01   0.964
  RD06_21_rdsq_out_with_PP       6.06      41.10       0.00       0.04       0.00       0.00       0.00        0.00     0.00   0.000
  RD06_21_rdsq_out_with_VS       6.06       0.00       0.00       6.03       0.00       0.00       0.00        0.00     0.00   0.000
  RD06_22_rdsq_out_no        6.06       0.00       0.00       0.00       5.84       0.00       5.84        0.01     0.01   0.964
  RD06_22_rdsq_out_with_PP       6.06      41.12       0.00       0.04       0.00       0.00       0.00        0.00     0.00   0.000
  RD06_22_rdsq_out_with_VS       6.06       0.00       0.00       6.03       0.00       0.00       0.00        0.00     0.00   0.000
  RD06_23_rdsq_out_no        6.06       0.00       0.00       0.00       5.84       0.00       5.84        0.02     0.01   0.964
  RD06_23_rdsq_out_with_PP       6.06      41.08       0.00       0.04       0.00       0.00       0.00        0.00     0.00   0.000
  RD06_23_rdsq_out_with_VS       6.06       0.00       0.00       5.34       0.00       0.00       0.01        0.00     0.00   0.002
  RD06_24_rdsq_out_no        6.06       0.00       0.00       0.00       5.84       0.00       5.84        0.02     0.01   0.963
  RD06_24_rdsq_out_with_PP       6.06      41.07       0.00       0.04       0.00       0.00       0.00        0.00     0.00   0.000
  RD06_24_rdsq_out_with_VS       6.06       0.00       0.00       5.34       0.00       0.00       0.02        0.00     0.00   0.003
  RD06_3_rdsq_out_no         6.06       0.00       0.00       0.00       5.83       0.00       5.83        0.02     0.01   0.962
  RD06_3_rdsq_out_with_PP       6.06      40.95       0.00       0.00      40.97       0.00      40.97        0.02     0.01   0.872
  RD06_3_rdsq_out_with_VS       6.06      22.59       0.00      10.14       0.00      22.58      22.64        0.02     0.01   0.790
  RD06_4_rdsq_out_no         6.06       0.00       0.00       0.00       5.82       0.00       5.82        0.02     0.01   0.961
  RD06_4_rdsq_out_with_PP       6.06      40.87       0.00       0.00      40.89       0.00      40.89        0.02     0.01   0.871
  RD06_4_rdsq_out_with_VS       6.06      22.58       0.00      10.06       0.00       0.00       2.17        0.00     0.00   0.076
  RD06_5_rdsq_out_no         6.06       0.00       0.00       0.00       5.83       0.00       5.83        0.02     0.01   0.962
  RD06_5_rdsq_out_with_PP       6.06      40.96       0.00       0.00      40.98       0.00      40.98        0.02     0.01   0.871
  RD06_5_rdsq_out_with_VS       6.06      22.61       0.00      10.13       0.00      22.60      22.65        0.02     0.01   0.790
  RD06_6_rdsq_out_no         6.06       0.00       0.00       0.00       5.84       0.00       5.84        0.01     0.01   0.964
  RD06_6_rdsq_out_with_PP       6.06      41.03       0.00       0.00      41.06       0.00      41.06        0.01     0.01   0.872
  RD06_6_rdsq_out_with_VS       6.06      22.66       0.00      10.07       0.00       0.00       3.39        0.00     0.00   0.118
  RD06_7_rdsq_out_no         6.06       0.00       0.00       0.00       5.82       0.00       5.82        0.02     0.01   0.961
  RD06_7_rdsq_out_with_PP       6.06      40.92       0.00       0.04       0.00       0.00       0.00        0.00     0.00   0.000
  RD06_7_rdsq_out_with_VS       6.06       0.00       0.00       6.03       0.00       0.00       0.00        0.00     0.00   0.000
  RD06_8_rdsq_out_no         6.06       0.00       0.00       0.00       5.84       0.00       5.84        0.02     0.01   0.963
  RD06_8_rdsq_out_with_PP       6.06      40.99       0.00       0.00      41.01       0.00      41.01        0.02     0.01   0.872
  RD06_8_rdsq_out_with_VS       6.06      22.64       0.00      10.07       0.00       0.00       1.95        0.00     0.00   0.068
  RD06_9_rdsq_out_no         6.06       0.00       0.00       0.00       5.84       0.00       5.84        0.01     0.01   0.963
  RD06_9_rdsq_out_with_PP       6.06      41.02       0.00       0.00      41.05       0.00      41.05        0.01     0.01   0.872
  RD06_9_rdsq_out_with_VS       6.06      22.65       0.00      10.07       0.00       0.00       3.61        0.00     0.00   0.126
  RD07_1_rdsq_out_no         6.06       0.00       0.00       0.00       5.82       0.00       5.82        0.05     0.03   0.960
  RD07_1_rdsq_out_with_PP       6.06      40.86       0.00       0.04       0.00       0.00       0.00        0.00     0.00   0.000
  RD07_1_rdsq_out_with_VS       6.06       0.00       0.00       6.03       0.00       0.00       0.00        0.00     0.00   0.000
  RD07_10_rdsq_out_no        6.06       0.00       0.00       0.00       5.83       0.00       5.83        0.02     0.01   0.962
  RD07_10_rdsq_out_with_PP       6.06      40.99       0.00       0.04       0.00       0.00       0.00        0.00     0.00   0.000
  RD07_10_rdsq_out_with_VS       6.06       0.00       0.00       6.03       0.00       0.00       0.00        0.00     0.00   0.000
  RD07_11_rdsq_out_no        6.06       0.00       0.00       0.00       5.83       0.00       5.83        0.03     0.01   0.961
  RD07_11_rdsq_out_with_PP       6.06      40.98       0.00       0.04       0.00       0.00       0.00        0.00     0.00   0.000
  RD07_11_rdsq_out_with_VS       6.06       0.00       0.00       6.03       0.00       0.00       0.00        0.00     0.00   0.000
  RD07_12_rdsq_out_no        6.06       0.00       0.00       0.00       5.84       0.00       5.84        0.02     0.01   0.964
  RD07_12_rdsq_out_with_PP       6.06      41.08       0.00       0.04       0.00       0.00       0.00        0.00     0.00   0.000
  RD07_12_rdsq_out_with_VS       6.06       0.00       0.00       6.03       0.00       0.00       0.00        0.00     0.00   0.000
  RD07_13_rdsq_out_no        6.06       0.00       0.00       0.00       5.83       0.00       5.83        0.02     0.01   0.962
  RD07_13_rdsq_out_with_PP       6.06      40.97       0.00       0.04       0.00       0.00       0.00        0.00     0.00   0.000
  RD07_13_rdsq_out_with_VS       6.06       0.00       0.00       5.34       0.00       0.00       0.01        0.00     0.00   0.002
  RD07_14_rdsq_out_no        6.06       0.00       0.00       0.00       5.83       0.00       5.83        0.02     0.01   0.962
  RD07_14_rdsq_out_with_PP       6.06      41.00       0.00       0.04       0.00       0.00       0.00        0.00     0.00   0.000
  RD07_14_rdsq_out_with_VS       6.06       0.00       0.00       5.34       0.00       0.00       0.01        0.00     0.00   0.002
  RD07_15_rdsq_out_no        6.06       0.00       0.00       0.00       5.82       0.00       5.82        0.03     0.02   0.961
  RD07_15_rdsq_out_with_PP       6.06      40.93       0.00       0.04       0.00       0.00       0.00        0.00     0.00   0.000
  RD07_15_rdsq_out_with_VS       6.06       0.00       0.00       6.03       0.00       0.00       0.00        0.00     0.00   0.000
  RD07_2_rdsq_out_no         6.06       0.00       0.00       0.00       5.83       0.00       5.83        0.02     0.01   0.961
  RD07_2_rdsq_out_with_PP       6.06      40.96       0.00       0.04       0.00       0.00       0.00        0.00     0.00   0.000
  RD07_2_rdsq_out_with_VS       6.06       0.00       0.00       6.03       0.00       0.00       0.00        0.00     0.00   0.000
  RD07_3_rdsq_out_no         6.06       0.00       0.00       0.00       5.82       0.00       5.82        0.03     0.02   0.960
  RD07_3_rdsq_out_with_PP       6.06      40.89       0.00       0.00      40.91       0.00      40.91        0.03     0.02   0.871
  RD07_3_rdsq_out_with_VS       6.06      22.55       0.00      10.06       0.00       0.00       1.39        0.00     0.00   0.049
  RD07_4_rdsq_out_no         6.06       0.00       0.00       0.00       5.83       0.00       5.83        0.03     0.01   0.962
  RD07_4_rdsq_out_with_PP       6.06      40.98       0.00       0.04       0.00       0.00       0.00        0.00     0.00   0.000
  RD07_4_rdsq_out_with_VS       6.06       0.00       0.00       6.03       0.00       0.00       0.00        0.00     0.00   0.000
  RD07_5_rdsq_out_no         6.06       0.00       0.00       0.00       5.85       0.00       5.85        0.02     0.01   0.965
  RD07_5_rdsq_out_with_PP       6.06      41.14       0.00       0.04       0.00       0.00       0.00        0.00     0.00   0.000
  RD07_5_rdsq_out_with_VS       6.06       0.00       0.00       6.03       0.00       0.00       0.00        0.00     0.00   0.000
  RD07_6_rdsq_out_no         6.06       0.00       0.00       0.00       5.83       0.00       5.83        0.02     0.01   0.963
  RD07_6_rdsq_out_with_PP       6.06      40.99       0.00       0.00      41.01       0.00      41.01        0.02     0.01   0.872
  RD07_6_rdsq_out_with_VS       6.06      22.61       0.00      10.13       0.00      22.60      22.66        0.02     0.01   0.790
  RD07_7_rdsq_out_no         6.06       0.00       0.00       0.00       5.82       0.00       5.82        0.02     0.01   0.961
  RD07_7_rdsq_out_with_PP       6.06      40.94       0.00       0.04       0.00       0.00       0.00        0.00     0.00   0.000
  RD07_7_rdsq_out_with_VS       6.06       0.00       0.00       5.34       0.00       0.00       0.01        0.00     0.00   0.002
  RD07_8_rdsq_out_no         6.06       0.00       0.00       0.00       5.82       0.00       5.82        0.02     0.01   0.960
  RD07_8_rdsq_out_with_PP       6.06      40.90       0.00       0.00      40.91       0.00      40.91        0.02     0.01   0.871
  RD07_8_rdsq_out_with_VS       6.06      22.55       0.00      10.05       0.00       0.00       1.64        0.00     0.00   0.057
  RD07_9_rdsq_out_no         6.06       0.00       0.00       0.00       5.83       0.00       5.83        0.01     0.01   0.962
  RD07_9_rdsq_out_with_PP       6.06      40.95       0.00       0.00      40.97       0.00      40.97        0.01     0.01   0.872
  RD07_9_rdsq_out_with_VS       6.06      22.62       0.00      10.14       0.00      22.61      22.69        0.01     0.01   0.791
  RD08_1_rdsq_out_no         6.06       0.00       0.00       0.00       5.82       0.00       5.82        0.02     0.01   0.960
  RD08_1_rdsq_out_with_PP       6.06      40.90       0.00       0.00      40.92       0.00      40.92        0.02     0.01   0.871
  RD08_1_rdsq_out_with_VS       6.06      22.56       0.00      10.13       0.00      22.55      22.59        0.02     0.01   0.789
  RD08_10_rdsq_out_no        6.06       0.00       0.00       0.00       5.84       0.00       5.84        0.01     0.01   0.964
  RD08_10_rdsq_out_with_PP       6.06      41.00       0.00       0.00      41.04       0.00      41.04        0.01     0.01   0.872
  RD08_10_rdsq_out_with_VS       6.06      22.69       0.00      10.07       0.00       0.00       3.66        0.00     0.00   0.127
  RD08_11_rdsq_out_no        6.06       0.00       0.00       0.00       5.84       0.00       5.84        0.01     0.00   0.964
  RD08_11_rdsq_out_with_PP       6.06      41.09       0.00       0.04       0.00       0.00       0.00        0.00     0.00   0.000
  RD08_11_rdsq_out_with_VS       6.06       0.00       0.00       5.34       0.00       0.00       0.04        0.00     0.00   0.006
  RD08_12_rdsq_out_no        6.06       0.00       0.00       0.00       5.85       0.00       5.85        0.01     0.00   0.966
  RD08_12_rdsq_out_with_PP       6.06      41.06       0.00       0.00      41.09       0.00      41.09        0.01     0.00   0.872
  RD08_12_rdsq_out_with_VS       6.06      22.75       0.00      10.07       0.00       0.00       4.63        0.00     0.00   0.161
  RD08_13_rdsq_out_no        6.06       0.00       0.00       0.00       5.85       0.00       5.85        0.01     0.00   0.965
  RD08_13_rdsq_out_with_PP       6.06      41.10       0.00       0.00      41.14       0.00      41.14        0.01     0.00   0.872
  RD08_13_rdsq_out_with_VS       6.06      22.71       0.00      10.07       0.00       0.00       4.70        0.00     0.00   0.164
  RD08_14_rdsq_out_no        6.06       0.00       0.00       0.00       5.85       0.00       5.85        0.01     0.00   0.965
  RD08_14_rdsq_out_with_PP       6.06      41.18       0.00       0.04       0.00       0.00       0.00        0.00     0.00   0.000
  RD08_14_rdsq_out_with_VS       6.06       0.00       0.00       6.03       0.00       0.00       0.00        0.00     0.00   0.000
  RD08_15_rdsq_out_no        6.06       0.00       0.00       0.00       5.86       0.00       5.86        0.01     0.00   0.967
  RD08_15_rdsq_out_with_PP       6.06      41.29       0.00       0.04       0.00       0.00       0.00        0.00     0.00   0.000
  RD08_15_rdsq_out_with_VS       6.06       0.00       0.00       6.03       0.00       0.00       0.00        0.00     0.00   0.000
  RD08_16_rdsq_out_no        6.06       0.00       0.00       0.00       5.86       0.00       5.86        0.01     0.00   0.966
  RD08_16_rdsq_out_with_PP       6.06      41.11       0.00       0.00      41.14       0.00      41.14        0.01     0.00   0.872
  RD08_16_rdsq_out_with_VS       6.06      22.70       0.00      10.14       0.00      22.69      22.79        0.01     0.00   0.792
  RD08_2_rdsq_out_no         6.06       0.00       0.00       0.00       5.81       0.00       5.81        0.02     0.01   0.958
  RD08_2_rdsq_out_with_PP       6.06      40.84       0.00       0.04       0.00       0.00       0.00        0.00     0.00   0.000
  RD08_2_rdsq_out_with_VS       6.06       0.00       0.00       5.34       0.00       0.00       0.01        0.00     0.00   0.002
  RD08_3_rdsq_out_no         6.06       0.00       0.00       0.00       5.77       0.00       5.77        0.08     0.04   0.953
  RD08_3_rdsq_out_with_PP       6.06      40.56       0.00       0.04       0.00       0.00       0.00        0.00     0.00   0.000
  RD08_3_rdsq_out_with_VS       6.06       0.00       0.00       6.03       0.00       0.00       0.00        0.00     0.00   0.000
  RD08_4_rdsq_out_no         6.06       0.00       0.00       0.00       5.84       0.00       5.84        0.01     0.01   0.963
  RD08_4_rdsq_out_with_PP       6.06      41.07       0.00       0.04       0.00       0.00       0.00        0.00     0.00   0.000
  RD08_4_rdsq_out_with_VS       6.06       0.00       0.00       5.34       0.00       0.00       0.02        0.00     0.00   0.003
  RD08_5_rdsq_out_no         6.06       0.00       0.00       0.00       5.84       0.00       5.84        0.01     0.01   0.963
  RD08_5_rdsq_out_with_PP       6.06      41.05       0.00       0.04       0.00       0.00       0.00        0.00     0.00   0.000
  RD08_5_rdsq_out_with_VS       6.06       0.00       0.00       5.34       0.00       0.00       0.02        0.00     0.00   0.003
  RD08_6_rdsq_out_no         6.06       0.00       0.00       0.00       5.83       0.00       5.83        0.02     0.01   0.961
  RD08_6_rdsq_out_with_PP       6.06      40.99       0.00       0.04       0.00       0.00       0.00        0.00     0.00   0.000
  RD08_6_rdsq_out_with_VS       6.06       0.00       0.00       5.34       0.00       0.00       0.01        0.00     0.00   0.002
  RD08_7_rdsq_out_no         6.06       0.00       0.00       0.00       5.85       0.00       5.85        0.01     0.01   0.965
  RD08_7_rdsq_out_with_PP       6.06      41.12       0.00       0.00      41.15       0.00      41.15        0.01     0.01   0.872
  RD08_7_rdsq_out_with_VS       6.06      22.71       0.00      10.07       0.00       0.00       3.04        0.00     0.00   0.106
  RD08_8_rdsq_out_no         6.06       0.00       0.00       0.00       5.85       0.00       5.85        0.01     0.01   0.965
  RD08_8_rdsq_out_with_PP       6.06      41.10       0.00       0.04       0.00       0.00       0.00        0.00     0.00   0.000
  RD08_8_rdsq_out_with_VS       6.06       0.00       0.00       5.34       0.00       0.00       0.02        0.00     0.00   0.003
  RD08_9_rdsq_out_no         6.06       0.00       0.00       0.00       5.84       0.00       5.84        0.01     0.00   0.964
  RD08_9_rdsq_out_with_PP       6.06      41.08       0.00       0.04       0.00       0.00       0.00        0.00     0.00   0.000
  RD08_9_rdsq_out_with_VS       6.06       0.00       0.00       6.03       0.00       0.00       0.00        0.00     0.00   0.000
  RD09_1_rdsq_out_no         6.06       0.00       0.00       0.00       5.85       0.00       5.85        0.01     0.01   0.965
  RD09_1_rdsq_out_with_PP       6.06      41.15       0.00       0.04       0.00       0.00       0.00        0.00     0.00   0.000
  RD09_1_rdsq_out_with_VS       6.06       0.00       0.00       5.34       0.00       0.00       0.02        0.00     0.00   0.003
  RD09_10_rdsq_out_no        6.06       0.00       0.00       0.00       5.85       0.00       5.85        0.01     0.00   0.964
  RD09_10_rdsq_out_with_PP       6.06      41.12       0.00       0.04       0.00       0.00       0.00        0.00     0.00   0.000
  RD09_10_rdsq_out_with_VS       6.06       0.00       0.00       5.34       0.00       0.00       0.03        0.00     0.00   0.004
  RD09_11_rdsq_out_no        6.06       0.00       0.00       0.00       5.84       0.00       5.84        0.02     0.01   0.963
  RD09_11_rdsq_out_with_PP       6.06      41.00       0.00       0.00      41.01       0.00      41.01        0.02     0.01   0.872
  RD09_11_rdsq_out_with_VS       6.06      22.62       0.00      10.13       0.00      22.62      22.67        0.02     0.01   0.790
  RD09_12_rdsq_out_no        6.06       0.00       0.00       0.00       5.86       0.00       5.86        0.02     0.01   0.967
  RD09_12_rdsq_out_with_PP       6.06      41.14       0.00       0.00      41.17       0.00      41.17        0.02     0.01   0.872
  RD09_12_rdsq_out_with_VS       6.06      22.71       0.00      10.13       0.00      22.71      22.76        0.02     0.01   0.791
  RD09_2_rdsq_out_no         6.06       0.00       0.00       0.00       5.84       0.00       5.84        0.02     0.01   0.963
  RD09_2_rdsq_out_with_PP       6.06      41.02       0.00       0.00      41.04       0.00      41.04        0.01     0.01   0.872
  RD09_2_rdsq_out_with_VS       6.06      22.62       0.00      10.14       0.00      22.61      22.67        0.01     0.01   0.790
  RD09_3_rdsq_out_no         6.06       0.00       0.00       0.00       5.85       0.00       5.85        0.02     0.01   0.965
  RD09_3_rdsq_out_with_PP       6.06      41.12       0.00       0.00      41.14       0.00      41.14        0.02     0.01   0.872
  RD09_3_rdsq_out_with_VS       6.06      22.69       0.00      10.14       0.00      22.68      22.74        0.02     0.01   0.791
  RD09_4_rdsq_out_no         6.06       0.00       0.00       0.00       5.85       0.00       5.85        0.02     0.01   0.964
  RD09_4_rdsq_out_with_PP       6.06      41.12       0.00       0.04       0.00       0.00       0.00        0.00     0.00   0.000
  RD09_4_rdsq_out_with_VS       6.06       0.00       0.00       5.34       0.00       0.00       0.01        0.00     0.00   0.002
  RD09_5_rdsq_out_no         6.06       0.00       0.00       0.00       5.82       0.00       5.82        0.03     0.02   0.960
  RD09_5_rdsq_out_with_PP       6.06      40.90       0.00       0.04       0.00       0.00       0.00        0.00     0.00   0.000
  RD09_5_rdsq_out_with_VS       6.06       0.00       0.00       6.03       0.00       0.00       0.00        0.00     0.00   0.000
  RD09_6_rdsq_out_no         6.06       0.00       0.00       0.00       5.82       0.00       5.82        0.03     0.02   0.960
  RD09_6_rdsq_out_with_PP       6.06      40.89       0.00       0.00      40.90       0.00      40.90        0.03     0.02   0.871
  RD09_6_rdsq_out_with_VS       6.06      22.55       0.00      10.06       0.00       0.00       1.17        0.00     0.00   0.041
  RD09_7_rdsq_out_no         6.06       0.00       0.00       0.00       5.86       0.00       5.86        0.01     0.01   0.966
  RD09_7_rdsq_out_with_PP       6.06      41.15       0.00       0.00      41.18       0.00      41.18        0.01     0.01   0.872
  RD09_7_rdsq_out_with_VS       6.06      22.70       0.00      10.14       0.00      22.69      22.77        0.01     0.01   0.792
  RD09_8_rdsq_out_no         6.06       0.00       0.00       0.00       5.84       0.00       5.84        0.01     0.01   0.964
  RD09_8_rdsq_out_with_PP       6.06      41.04       0.00       0.00      41.07       0.00      41.07        0.01     0.01   0.872
  RD09_8_rdsq_out_with_VS       6.06      22.65       0.00      10.14       0.00      22.64      22.72        0.01     0.01   0.791
  RD09_9_rdsq_out_no         6.06       0.00       0.00       0.00       5.85       0.00       5.85        0.01     0.00   0.966
  RD09_9_rdsq_out_with_PP       6.06      41.21       0.00       0.04       0.00       0.00       0.00        0.00     0.00   0.000
  RD09_9_rdsq_out_with_VS       6.06       0.00       0.00       5.34       0.00       0.00       0.03        0.00     0.00   0.004
  S01_10_green_no            6.06       0.00       0.00       6.06       0.00       0.00       0.00        0.00     0.00   0.000
  S01_10_green_with_BR       6.06       0.00       0.00       0.00       0.00       0.00       0.00        0.00     0.00   0.000
  S01_10_green_with_VS       6.06       0.00       0.00       6.06       0.00       0.00       0.00        0.00     0.00   0.000
  S01_10_roof_no             6.06       0.00       0.00       0.00       5.34       0.00       5.34        0.04     0.02   0.880
  S01_10_roof_with_GR        6.06      21.50       0.00       0.00       0.00       0.00       0.00        0.00     0.00   0.000
  S01_10_rdsq_in_no_PP       6.06       0.00       0.00       0.00       5.53       0.00       5.53        0.05     0.02   0.913
  S01_10_rdsq_in_with_PP       6.06      28.82       0.00       0.01       0.00       0.00       0.00        0.00     0.00   0.000
  S01_10_rdsq_out_no_PP       6.06       0.00       0.00       0.00       5.82       0.00       5.82        0.02     0.01   0.961
  S01_10_rdsq_out_with_PP       6.06      30.47       0.00       0.01       0.00       0.00       0.00        0.00     0.00   0.000
  S01_12_green_no            6.06       0.00       0.00       6.06       0.00       0.00       0.00        0.00     0.00   0.000
  S01_12_green_with_BR       6.06       0.00       0.00       0.00       0.00       0.00       0.00        0.00     0.00   0.000
  S01_12_green_with_VS       6.06       0.00       0.00       6.06       0.00       0.00       0.00        0.00     0.00   0.000
  S01_12_roof_no             6.06       0.00       0.00       0.00       5.21       0.00       5.21        0.08     0.03   0.859
  S01_12_roof_with_GR        6.06      20.94       0.00       0.00       0.00       0.00       0.00        0.00     0.00   0.000
  S01_12_rdsq_in_no_PP       6.06       0.00       0.00       0.00       5.29       0.00       5.29        0.12     0.05   0.872
  S01_12_rdsq_in_with_PP       6.06      27.46       0.00       0.01       0.00       0.00       0.00        0.00     0.00   0.000
  S01_13_green_no            6.06       0.04       0.00       6.10       0.00       0.00       0.00        0.00     0.00   0.000
  S01_13_green_with_BR       6.06       0.00       0.00       0.00       0.00       0.00       0.00        0.00     0.00   0.000
  S01_13_green_with_VS       6.06       7.39       0.00      11.24       0.00       0.00       0.15        0.00     0.00   0.011
  S01_13_roof_no             6.06       0.00       0.00       0.00       5.20       0.00       5.20        0.08     0.03   0.857
  S01_13_roof_with_GR        6.06      20.89       0.00       0.00       0.00       0.00       0.00        0.00     0.00   0.000
  S01_13_rdsq_in_no_PP       6.06       0.00       0.00       0.00       5.17       0.00       5.17        0.09     0.04   0.853
  S01_13_rdsq_in_with_PP       6.06      26.82       0.00       0.01       0.00       0.00       0.00        0.00     0.00   0.000
  S01_13_rdsq_out_no_PP       6.06       0.00       0.00       0.00       5.78       0.00       5.78        0.03     0.02   0.954
  S01_13_rdsq_out_with_PP       6.06      30.20       0.00       0.00      30.21       0.00      30.21        0.03     0.02   0.833
  S01_14_green_no            6.06       0.00       0.00       6.06       0.00       0.00       0.00        0.00     0.00   0.000
  S01_14_green_with_BR       6.06       0.00       0.00       0.00       0.00       0.00       0.00        0.00     0.00   0.000
  S01_14_green_with_VS       6.06       0.00       0.00       6.06       0.00       0.00       0.00        0.00     0.00   0.000
  S01_14_roof_no             6.06       0.00       0.00       0.00       5.29       0.00       5.29        0.05     0.02   0.873
  S01_14_roof_with_GR        6.06      21.30       0.00       0.00       0.00       0.00       0.00        0.00     0.00   0.000
  S01_14_rdsq_in_no_PP       6.06       0.00       0.00       0.00       5.45       0.00       5.45        0.07     0.03   0.898
  S01_14_rdsq_in_with_PP       6.06      28.35       0.00       0.01       0.00       0.00       0.00        0.00     0.00   0.000
  S01_15_green_no            6.06       0.14       0.00       6.20       0.00       0.00       0.00        0.00     0.00   0.000
  S01_15_green_with_BR       6.06      11.45       0.00       0.00       0.00       0.00       0.00        0.00     0.00   0.000
  S01_15_green_with_VS       6.06       8.45       0.00      11.23       0.00       0.00       0.52        0.00     0.00   0.036
  S01_15_roof_no             6.06       0.00       0.00       0.00       5.36       0.00       5.36        0.04     0.02   0.884
  S01_15_roof_with_GR        6.06      21.58       0.00       0.00       0.00       0.00       0.00        0.00     0.00   0.000
  S01_15_rdsq_in_no_PP       6.06       0.00       0.00       0.00       5.57       0.00       5.57        0.03     0.01   0.920
  S01_15_rdsq_in_with_PP       6.06      29.06       0.00       0.00      29.07       0.00      29.07        0.03     0.01   0.828
  S01_15_rdsq_out_no_PP       6.06       0.00       0.00       0.00       5.83       0.00       5.83        0.01     0.01   0.962
  S01_15_rdsq_out_with_PP       6.06      30.46       0.00       0.00      30.48       0.00      30.48        0.01     0.01   0.835
  S01_3_green_no             6.06       0.00       0.00       6.06       0.00       0.00       0.00        0.00     0.00   0.000
  S01_3_green_with_BR        6.06       0.00       0.00       0.00       0.00       0.00       0.00        0.00     0.00   0.000
  S01_3_green_with_VS        6.06       0.00       0.00       6.06       0.00       0.00       0.00        0.00     0.00   0.000
  S01_3_rdsq_in              6.06       0.00       0.00       0.00       5.44       0.00       5.44        0.10     0.04   0.898
  S01_4_green_no             6.06       0.00       0.00       6.06       0.00       0.00       0.00        0.00     0.00   0.000
  S01_4_green_with_BR        6.06       0.00       0.00       0.00       0.00       0.00       0.00        0.00     0.00   0.000
  S01_4_green_with_VS        6.06       0.00       0.00       6.06       0.00       0.00       0.00        0.00     0.00   0.000
  S01_4_roof_no              6.06       0.00       0.00       0.00       5.20       0.00       5.20        0.08     0.03   0.859
  S01_4_roof_with_GR         6.06      20.93       0.00       0.00       0.00       0.00       0.00        0.00     0.00   0.000
  S01_4_rdsq_in_no_PP        6.06       0.00       0.00       0.00       5.34       0.00       5.34        0.11     0.05   0.881
  S01_4_rdsq_in_with_PP       6.06      27.76       0.00       0.01       0.00       0.00       0.00        0.00     0.00   0.000
  S01_5_green_no             6.06       0.00       0.00       6.06       0.00       0.00       0.00        0.00     0.00   0.000
  S01_5_green_with_BR        6.06      28.41       0.00       0.00       0.00       0.00       0.00        0.00     0.00   0.000
  S01_5_green_with_VS        6.06       0.00       0.00       6.05       0.00       0.00       0.00        0.00     0.00   0.000
  S01_5_roof_no              6.06       0.00       0.00       0.00       5.45       0.00       5.45        0.02     0.01   0.899
  S01_5_roof_with_GR         6.06      21.99       0.00       0.00      22.00       0.00      22.00        0.02     0.01   0.784
  S01_5_rdsq_in_no_PP        6.06       0.00       0.00       0.00       5.57       0.00       5.57        0.03     0.01   0.919
  S01_5_rdsq_in_with_PP       6.06      29.02       0.00       0.00      29.03       0.00      29.03        0.03     0.01   0.827
  S01_6_green_no             6.06       0.00       0.00       6.06       0.00       0.00       0.00        0.00     0.00   0.000
  S01_6_green_with_BR        6.06       0.00       0.00       0.00       0.00       0.00       0.00        0.00     0.00   0.000
  S01_6_green_with_VS        6.06       1.17       0.00       7.23       0.00       0.00       0.00        0.00     0.00   0.000
  S01_6_roof_no              6.06       0.00       0.00       0.00       5.59       0.00       5.59        0.00     0.00   0.922
  S01_6_roof_with_GR         6.06      22.63       0.00       0.00       0.00       0.00       0.00        0.00     0.00   0.000
  S01_6_rdsq_in_no_PP        6.06       0.00       0.00       0.00       5.57       0.00       5.57        0.03     0.02   0.919
  S01_6_rdsq_in_with_PP       6.06      29.03       0.00       0.01       0.00       0.00       0.00        0.00     0.00   0.000
  S01_6_rdsq_out_no_PP       6.06       0.00       0.00       0.00       5.86       0.00       5.86        0.00     0.00   0.967
  S01_6_rdsq_out_with_PP       6.06      30.51       0.00       0.00      30.57       0.00      30.57        0.00     0.00   0.836
  S01_7_green_no             6.06       0.00       0.00       6.06       0.00       0.00       0.00        0.00     0.00   0.000
  S01_7_green_with_BR        6.06      23.85       0.00       0.00       0.00       0.00       0.00        0.00     0.00   0.000
  S01_7_green_with_VS        6.06       0.00       0.00       6.00       0.00       0.00       0.00        0.00     0.00   0.000
  S01_7_roof_no              6.06       0.00       0.00       0.00       5.56       0.00       5.56        0.01     0.00   0.917
  S01_7_roof_with_GR         6.06      22.41       0.00       0.00      22.43       0.00      22.43        0.01     0.00   0.788
  S01_7_rdsq_in_no_PP        6.06       0.00       0.00       0.00       5.67       0.00       5.67        0.02     0.01   0.936
  S01_7_rdsq_in_with_PP       6.06      29.60       0.00       0.00      29.62       0.00      29.62        0.02     0.01   0.830
  S01_8_green_no             6.06       0.00       0.00       6.06       0.00       0.00       0.00        0.00     0.00   0.000
  S01_8_green_with_BR        6.06      29.11       0.00       0.00       0.00       0.00       0.00        0.00     0.00   0.000
  S01_8_green_with_VS        6.06       0.00       0.00       6.06       0.00       0.00       0.00        0.00     0.00   0.000
  S01_8_roof_no              6.06       0.00       0.00       0.00       5.53       0.00       5.53        0.01     0.00   0.912
  S01_8_roof_with_GR         6.06      22.32       0.00       0.00      22.33       0.00      22.33        0.01     0.00   0.787
  S01_8_rdsq_in_no_PP        6.06       0.00       0.00       0.00       5.64       0.00       5.64        0.02     0.01   0.931
  S01_8_rdsq_in_with_PP       6.06      29.45       0.00       0.00      29.46       0.00      29.46        0.02     0.01   0.830
  S01_9_green_no             6.06       0.06       0.00       6.12       0.00       0.00       0.00        0.00     0.00   0.000
  S01_9_green_with_BR        6.06       0.00       0.00       0.00       0.00       0.00       0.00        0.00     0.00   0.000
  S01_9_green_with_VS        6.06       7.70       0.00      11.24       0.00       0.00       0.22        0.00     0.00   0.016
  S01_9_roof_no              6.06       0.00       0.00       0.00       5.30       0.00       5.30        0.05     0.02   0.874
  S01_9_roof_with_GR         6.06      21.35       0.00       0.00       0.00       0.00       0.00        0.00     0.00   0.000
  S01_9_rdsq_in_no_PP        6.06       0.00       0.00       0.00       5.33       0.00       5.33        0.07     0.03   0.879
  S01_9_rdsq_in_with_PP       6.06      27.68       0.00       0.01       0.00       0.00       0.00        0.00     0.00   0.000
  S01_9_rdsq_out_no_PP       6.06       0.00       0.00       0.00       5.80       0.00       5.80        0.02     0.01   0.957
  S01_9_rdsq_out_with_PP       6.06      30.29       0.00       0.00      30.30       0.00      30.30        0.02     0.01   0.834
  S02_1_green_no             6.06       0.00       0.00       6.06       0.00       0.00       0.00        0.00     0.00   0.000
  S02_1_green_with_BR        6.06       0.00       0.00       0.00       0.00       0.00       0.00        0.00     0.00   0.000
  S02_1_green_with_VS        6.06       1.54       0.00       7.60       0.00       0.00       0.00        0.00     0.00   0.000
  S02_1_roof_no              6.06       0.00       0.00       0.00       5.51       0.00       5.51        0.01     0.01   0.910
  S02_1_roof_with_GR         6.06      22.29       0.00       0.00       0.00       0.00       0.00        0.00     0.00   0.000
  S02_1_rdsq_in_no_PP        6.06       0.00       0.00       0.00       5.52       0.00       5.52        0.09     0.04   0.911
[...]
  L154                         0.000         0.000         0.000         0.000
  L155                         0.000         0.000         0.000         0.000
  L156                         0.000         0.000         0.000         0.000
  L157                         0.000         0.000         0.000         0.000
  L158                         0.000         0.000         0.000         0.000
  L159                        10.533         0.237         0.089         0.044
  L160                         4.961         0.293         0.081         0.035
  L161                         0.000         0.000         0.000         0.000
  L162                         0.000         0.000         0.000         0.000
  L163                         0.000         0.000         0.000         0.000
  L164                         0.000         0.000         0.000         0.000
  L165                         0.432         0.014         0.003         0.003
  L166                         5.232         0.316         0.090         0.037
  L167                         5.253         0.306         0.086         0.037
  L168                         0.467         0.015         0.003         0.003
  L169                         0.288         0.008         0.002         0.001
  L170                         0.000         0.000         0.000         0.000
  L171                         0.008         0.000         0.000         0.000
  L172                         0.000         0.000         0.000         0.000
  L173                         0.000         0.000         0.000         0.000
  L174                         0.000         0.000         0.000         0.000
  L175                         0.467         0.015         0.003         0.003
  L176                         0.000         0.000         0.000         0.000
  L177                         0.000         0.000         0.000         0.000
  L178                         0.000         0.000         0.000         0.000
  L179                         0.054         0.002         0.000         0.000
  L180                         0.000         0.000         0.000         0.000
  L181                         6.652         0.154         0.058         0.029
  L182                         0.301         0.010         0.002         0.002
  L184                         0.391         0.013         0.003         0.002
  L185                         0.000         0.000         0.000         0.000
  L186                         4.868         0.120         0.042         0.022
  L194                         0.000         0.000         0.000         0.000
  L198                         0.962         0.019         0.008         0.004
  L199                         7.105         0.155         0.061         0.029
  L200                         0.648         0.036         0.019         0.019
  L201                         2.978         0.067         0.026         0.013
  L202                         0.000         0.000         0.000         0.000
  L203                         0.039         0.001         0.000         0.000
  L204                         0.265         0.008         0.002         0.002
  L205                         0.000         0.000         0.000         0.000
  L206                         0.000         0.000         0.000         0.000
  L207                         0.331         0.011         0.002         0.002
  L208                         0.308         0.010         0.002         0.002
  L209                         0.000         0.000         0.000         0.000
  L210                         0.000         0.000         0.000         0.000
  L211                         0.130         0.005         0.001         0.001
  L217                         7.940         0.183         0.069         0.034
  L218                         0.000         0.000         0.000         0.000
  L219                         0.000         0.000         0.000         0.000
  L220                         0.000         0.000         0.000         0.000
  L222                         0.000         0.000         0.000         0.000
  L223                         5.357         0.132         0.046         0.024
  L224                         0.000         0.000         0.000         0.000
  L225                         5.049         0.123         0.044         0.023
  L226                         4.826         0.107         0.040         0.020
  L228                         0.000         0.000         0.000         0.000
  L229                         0.000         0.000         0.000         0.000
  L230                         0.000         0.000         0.000         0.000
  L231                         0.000         0.000         0.000         0.000
  L234                         0.000         0.000         0.000         0.000
  L235                         0.000         0.000         0.000         0.000
  L252                         0.000         0.000         0.000         0.000
  L254                         0.313         0.007         0.003         0.001
  L255                         7.801         0.192         0.067         0.035
  L256                         7.979         0.189         0.068         0.035
  L257                         1.893         0.042         0.018         0.008
  L258                         2.488         0.057         0.022         0.011
  L259                         6.554         0.148         0.057         0.028
  L260                         7.696         0.185         0.067         0.034
  L261                         0.435         0.015         0.003         0.003
  L262                         0.030         0.001         0.000         0.000
  L263                         0.000         0.000         0.000         0.000
  L267                         0.000         0.000         0.000         0.000
  L268                         0.118         0.004         0.001         0.001
  L269                         0.196         0.006         0.001         0.001
  L270                         4.748         0.115         0.042         0.021
  L271                         0.000         0.000         0.000         0.000
  L272                         0.000         0.000         0.000         0.000
  L273                         0.000         0.000         0.000         0.000
  L274                         0.323         0.011         0.002         0.002
  L275                         7.301         0.172         0.064         0.032
  L277                         8.559         0.193         0.074         0.036
  L278                         0.071         0.002         0.000         0.000
  L279                         0.381         0.013         0.003         0.002
  L280                         7.789         0.196         0.066         0.036
  L281                         0.061         0.002         0.000         0.000
  L282                         0.075         0.002         0.001         0.000
  L283                        14.983         0.357         0.130         0.066
  L284                         0.720         0.023         0.005         0.004
  L285                        13.428         0.330         0.117         0.060
  L286                         0.002         0.000         0.000         0.000
  L287                         0.000         0.000         0.000         0.000
  L288                        14.996         0.365         0.130         0.067
  L289                         0.417         0.014         0.003         0.003
  L290                         0.000         0.000         0.000         0.000
  L291                         0.095         0.003         0.001         0.001
  L292                         0.000         0.000         0.000         0.000
  L293                         0.000         0.000         0.000         0.000
  L297                         0.000         0.000         0.000         0.000
  L298                        13.883         0.342         0.120         0.063
  L299                         0.000         0.000         0.000         0.000
  L301                         0.033         0.001         0.000         0.000
  L303                         5.539         0.210         0.088         0.047
  L304                         0.689         0.021         0.007         0.004
  L305                         0.195         0.007         0.001         0.001
  L307                         0.000         0.000         0.000         0.000
  L308                         1.442         0.056         0.013         0.009
  L309                         0.855         0.057         0.015         0.007
  L310                         5.291         0.136         0.058         0.037
  L311                         0.000         0.000         0.000         0.000
  L312                         0.000         0.000         0.000         0.000
  L313                        10.903         0.237         0.093         0.044
  L314                         0.186         0.006         0.001         0.001
  L315                         0.906         0.042         0.010         0.006
  L316                         5.311         0.140         0.060         0.040
  L317                         6.560         0.156         0.056         0.029
  L318                         0.000         0.000         0.000         0.000
  L319                         0.000         0.000         0.000         0.000
  L320                         0.018         0.001         0.000         0.000
  L321                         0.000         0.000         0.000         0.000
  L322                         0.000         0.000         0.000         0.000
  L323                         0.078         0.003         0.001         0.000
  L324                         0.000         0.000         0.000         0.000
  L325                         0.052         0.002         0.000         0.000
  L326                         6.304         0.157         0.054         0.029
  L327                        10.036         0.270         0.096         0.046
  L328                         0.000         0.000         0.000         0.000
  L329                         0.008         0.000         0.000         0.000
  L330                         0.361         0.012         0.002         0.002
  L331                         0.000         0.000         0.000         0.000
  L332                         0.471         0.016         0.003         0.003
  L333                         0.000         0.000         0.000         0.000
  L334                         7.528         0.184         0.065         0.034
  L335                         7.971         0.179         0.068         0.033
  L336                         1.200         0.069         0.036         0.034
  L337                         1.149         0.066         0.034         0.033
  L338                         1.157         0.065         0.033         0.033
  L340                         0.433         0.013         0.003         0.002
  L341                         0.480         0.016         0.003         0.003
  L342                         0.000         0.000         0.000         0.000
  L343                         0.000         0.000         0.000         0.000
  L344                         0.000         0.000         0.000         0.000
  L345                         0.376         0.013         0.002         0.002
  L346                         0.000         0.000         0.000         0.000
  L347                         0.057         0.002         0.000         0.000
  L348                         0.637         0.021         0.004         0.004
  L349                         0.000         0.000         0.000         0.000
  L350                         1.684         0.035         0.014         0.007
  L351                         0.399         0.014         0.003         0.002
  L352                         7.103         0.175         0.062         0.032
  L353                         0.000         0.000         0.000         0.000
  L354                         0.604         0.020         0.004         0.004
  L355                         5.892         0.225         0.066         0.030
  L356                         0.419         0.013         0.003         0.002
  L357                         6.174         0.151         0.053         0.028
  L358                         0.429         0.014         0.003         0.003
  L359                         0.000         0.000         0.000         0.000
  L361                         0.000         0.000         0.000         0.000
  L362                         0.000         0.000         0.000         0.000
  L363                         0.461         0.015         0.003         0.003
  L364                         0.458         0.016         0.003         0.003
  L365                         0.000         0.000         0.000         0.000
  L366                         8.325         0.207         0.072         0.038
  L367                         0.000         0.000         0.000         0.000
  L368                         0.000         0.000         0.000         0.000
  L369                         0.046         0.001         0.000         0.000
  L370                         0.000         0.000         0.000         0.000
  L371                         0.000         0.000         0.000         0.000
  L372                         1.139         0.066         0.034         0.033
  L373                         0.000         0.000         0.000         0.000
  L374                         4.915         0.120         0.043         0.022
  L378                         0.000         0.000         0.000         0.000
  L379                         0.000         0.000         0.000         0.000
  L380                         0.000         0.000         0.000         0.000
  L381                         0.000         0.000         0.000         0.000
  L382                         0.444         0.015         0.006         0.003
  L383                         3.550         0.142         0.055         0.029
  L384                         0.000         0.000         0.000         0.000
  L385                         0.000         0.000         0.000         0.000
  L386                         0.348         0.011         0.002         0.002
  L387                         4.930         0.108         0.041         0.020
  L388                         0.000         0.000         0.000         0.000
  L389                         0.029         0.001         0.000         0.000
  L390                         0.127         0.002         0.001         0.000
  L391                        10.483         0.243         0.093         0.045
  L392                         7.139         0.180         0.064         0.033
  L393                         0.000         0.000         0.000         0.000
  L394                         8.073         0.182         0.070         0.034
  L395                        11.207         0.253         0.098         0.047
  L396                         0.000         0.000         0.000         0.000
  L397                         0.085         0.003         0.001         0.001
  L398                         0.000         0.000         0.000         0.000
  L399                         0.000         0.000         0.000         0.000
  L400                         0.321         0.010         0.002         0.002
  L401                         9.186         0.332         0.105         0.051
  L402                         5.782         0.129         0.051         0.024
  L403                         0.000         0.000         0.000         0.000
  L405                         0.000         0.000         0.000         0.000
  L406                         7.778         0.178         0.069         0.033
  L407                         0.000         0.000         0.000         0.000
  L408                         0.405         0.014         0.003         0.002
  L409                         0.000         0.000         0.000         0.000
  L410                         1.636         0.056         0.021         0.012
  L411                         0.000         0.000         0.000         0.000
  L412                         0.000         0.000         0.000         0.000
  L413                         0.000         0.000         0.000         0.000
  L414                         0.000         0.000         0.000         0.000
  L415                         0.000         0.000         0.000         0.000
  L416                         8.595         0.200         0.079         0.043
  L417                         6.805         0.147         0.056         0.027
  L418                         0.428         0.015         0.003         0.003
  L419                         0.000         0.000         0.000         0.000
  L420                         0.000         0.000         0.000         0.000
  L421                         0.000         0.000         0.000         0.000
  L422                         6.122         0.135         0.054         0.025
  L423                         6.160         0.282         0.092         0.041
  L424                         0.000         0.000         0.000         0.000
  L425                         6.767         0.152         0.059         0.028
  L426                        10.509         0.259         0.091         0.047
  L427                         0.000         0.000         0.000         0.000
  L428                         0.000         0.000         0.000         0.000
  L429                         0.000         0.000         0.000         0.000
  L430                         0.000         0.000         0.000         0.000
  L431                         0.000         0.000         0.000         0.000
  L432                         0.000         0.000         0.000         0.000
  L434                         4.434         0.104         0.039         0.019
  L435                         0.130         0.004         0.001         0.001
  L437                         0.347         0.011         0.002         0.002
  L439                         0.000         0.000         0.000         0.000
  L440                         0.000         0.000         0.000         0.000
  L441                         0.376         0.012         0.003         0.002
  L442                         0.412         0.014         0.003         0.003
  L443                         7.270         0.173         0.064         0.032
  L448                         0.005         0.000         0.000         0.000
  L449                         0.288         0.009         0.002         0.002
  L450                         0.325         0.011         0.002         0.002
  L451                         0.000         0.000         0.000         0.000
  L452                         4.574         0.113         0.040         0.021
  L453                         0.000         0.000         0.000         0.000
  L454                         0.429         0.027         0.008         0.004
  L457                         0.000         0.000         0.000         0.000
  L458                         0.000         0.000         0.000         0.000
  L464                        18.143         1.023         0.525         0.508
  L466                        13.924         0.692         0.351         0.335
  L462                         0.000         0.000         0.000         0.000
  L461                         0.297         0.007         0.002         0.001
  L463                         0.384         0.009         0.003         0.002
  L465                         9.115         0.330         0.156         0.139
  L459                         0.000         0.000         0.000         0.000
  L460                         0.000         0.000         0.000         0.000
  

  Analysis begun on:  Thu Dec 23 10:52:21 2021
  Analysis ended on:  Thu Dec 23 10:52:26 2021
  Total elapsed time: 00:00:05