
  EPA STORM WATER MANAGEMENT MODEL - VERSION 5.1 (Build 5.1.013)
  --------------------------------------------------------------

  骞虫睙鏂板煄 
  
  
  *********************
  Rainfall File Summary
  *********************
  Station    First        Last         Recording   Periods    Periods    Periods
  ID         Date         Date         Frequency  w/Precip    Missing    Malfunc.
  -------------------------------------------------------------------------------
  1          01/01/2018   01/01/2018       5 min        24          0          0

  
  *********************************************************
  NOTE: The summary statistics displayed in this report are
  based on results found at every computational time step,  
  not just on results from each reporting time step.
  *********************************************************
  
  ****************
  Analysis Options
  ****************
  Flow Units ............... CMS
  Process Models:
    Rainfall/Runoff ........ YES
    RDII ................... NO
    Snowmelt ............... NO
    Groundwater ............ NO
    Flow Routing ........... YES
    Ponding Allowed ........ YES
    Water Quality .......... YES
  Infiltration Method ...... HORTON
  Flow Routing Method ...... DYNWAVE
  Surcharge Method ......... EXTRAN
  Starting Date ............ 01/01/2018 00:00:00
  Ending Date .............. 01/01/2018 02:00:00
  Antecedent Dry Days ...... 14.0
  Report Time Step ......... 00:05:00
  Wet Time Step ............ 00:05:00
  Dry Time Step ............ 06:00:00
  Routing Time Step ........ 30.00 sec
  Variable Time Step ....... YES
  Maximum Trials ........... 10
  Number of Threads ........ 4
  Head Tolerance ........... 0.001500 m
  
  
  **************************        Volume         Depth
  Runoff Quantity Continuity     hectare-m            mm
  **************************     ---------       -------
  Initial LID Storage ......         1.044         2.089
  Total Precipitation ......         3.029         6.062
  Evaporation Loss .........         0.000         0.000
  Infiltration Loss ........         1.081         2.164
  Surface Runoff ...........         0.227         0.455
  Final Storage ............         2.685         5.372
  Continuity Error (%) .....         1.966
  
  
  **************************           COD            TN         NH4-N            TP
  Runoff Quality Continuity             kg            kg            kg            kg
  **************************    ----------    ----------    ----------    ----------
  Initial Buildup ..........     29712.080      2190.422       628.118       246.441
  Surface Buildup ..........         0.734         0.586         0.006         0.020
  Wet Deposition ...........         0.000         0.000         0.000         0.000
  Sweeping Removal .........         0.000         0.000         0.000         0.000
  Infiltration Loss ........        77.368         4.405         1.080         0.414
  BMP Removal ..............      3250.222       116.696        31.737        19.241
  Surface Runoff ...........       938.248        24.486         7.202         5.011
  Remaining Buildup ........     25364.735      2041.967       587.230       221.238
  Continuity Error (%) .....         0.277         0.158         0.139         0.226
  
  
  **************************        Volume        Volume
  Flow Routing Continuity        hectare-m      10^6 ltr
  **************************     ---------     ---------
  Dry Weather Inflow .......         0.000         0.000
  Wet Weather Inflow .......         0.223         2.233
  Groundwater Inflow .......         0.000         0.000
  RDII Inflow ..............         0.000         0.000
  External Inflow ..........         0.000         0.000
  External Outflow .........         0.190         1.901
  Flooding Loss ............         0.000         0.000
  Evaporation Loss .........         0.000         0.000
  Exfiltration Loss ........         0.000         0.000
  Initial Stored Volume ....         0.041         0.413
  Final Stored Volume ......         0.074         0.738
  Continuity Error (%) .....         0.243
  
  
  **************************           COD            TN         NH4-N            TP
  Quality Routing Continuity            kg            kg            kg            kg
  **************************    ----------    ----------    ----------    ----------
  Dry Weather Inflow .......         0.000         0.000         0.000         0.000
  Wet Weather Inflow .......       923.630        23.961         7.094         4.918
  Groundwater Inflow .......         0.000         0.000         0.000         0.000
  RDII Inflow ..............         0.000         0.000         0.000         0.000
  External Inflow ..........         0.000         0.000         0.000         0.000
  External Outflow .........       716.002        17.558         5.592         3.721
  Flooding Loss ............         0.000         0.000         0.000         0.000
  Exfiltration Loss ........         0.000         0.000         0.000         0.000
  Mass Reacted .............         0.000         0.000         0.000         0.000
  Initial Stored Mass ......         0.000         0.000         0.000         0.000
  Final Stored Mass ........       183.338         5.979         1.294         1.094
  Continuity Error (%) .....         2.630         1.767         2.925         2.097
  
  
  *************************
  Highest Continuity Errors
  *************************
  Node Y174 (100.00%)
  Node Y209 (100.00%)
  Node Y308 (100.00%)
  Node Y365 (100.00%)
  Node Y393 (100.00%)
  
  
  ***************************
  Time-Step Critical Elements
  ***************************
  Link L443 (42.49%)
  Link L466 (37.45%)
  Link L407 (7.47%)
  Link L419 (2.52%)
  Link L94 (2.36%)
  
  
  ********************************
  Highest Flow Instability Indexes
  ********************************
  Link L422 (9)
  Link L258 (9)
  Link L443 (8)
  Link L230 (7)
  Link L200 (6)
  
  
  *************************
  Routing Time Step Summary
  *************************
  Minimum Time Step           :     1.78 sec
  Average Time Step           :     5.85 sec
  Maximum Time Step           :    30.00 sec
  Percent in Steady State     :    -0.00
  Average Iterations per Step :     2.01
  Percent Not Converging      :     0.00
  
  
  ***************************
  Subcatchment Runoff Summary
  ***************************
  
  ------------------------------------------------------------------------------------------------------------------------------
                            Total      Total      Total      Total     Imperv       Perv      Total       Total     Peak  Runoff
                           Precip      Runon       Evap      Infil     Runoff     Runoff     Runoff      Runoff   Runoff   Coeff
  Subcatchment                 mm         mm         mm         mm         mm         mm         mm    10^6 ltr      CMS
  ------------------------------------------------------------------------------------------------------------------------------
  RD01_1_rdsq_out_no         6.06       0.00       0.00       0.00       5.84       0.00       5.84        0.01     0.00   0.964
  RD01_1_rdsq_out_with_PP       6.06      85.75       0.00       0.00      85.84       0.00      85.84        0.01     0.00   0.935
  RD01_1_rdsq_out_with_VS       6.06     124.50       0.00      10.16       0.00     124.41     124.94        0.01     0.00   0.957
  RD01_10_rdsq_out_no        6.06       0.00       0.00       0.00       5.81       0.00       5.81        0.02     0.01   0.959
  RD01_10_rdsq_out_with_PP       6.06      85.62       0.00       0.47       0.00       0.00       0.35        0.00     0.00   0.004
  RD01_10_rdsq_out_with_VS       6.06       0.25       0.00       7.42       0.00       0.24       0.29        0.00     0.00   0.047
  RD01_11_rdsq_out_no        6.06       0.00       0.00       0.00       5.82       0.00       5.82        0.02     0.01   0.961
  RD01_11_rdsq_out_with_PP       6.06      85.52       0.00       0.00      85.57       0.00      85.57        0.02     0.01   0.934
  RD01_11_rdsq_out_with_VS       6.06     125.21       0.00      10.25       0.00       0.00      91.59        0.01     0.00   0.698
  RD01_12_rdsq_out_no        6.06       0.00       0.00       0.00       5.80       0.00       5.80        0.03     0.02   0.957
  RD01_12_rdsq_out_with_PP       6.06      85.36       0.00       0.00      85.39       0.00      85.39        0.03     0.02   0.934
  RD01_12_rdsq_out_with_VS       6.06     124.04       0.00      10.14       0.00     124.01     124.18        0.03     0.02   0.955
  RD01_13_rdsq_out_no        6.06       0.00       0.00       0.00       5.81       0.00       5.81        0.03     0.02   0.959
  RD01_13_rdsq_out_with_PP       6.06      85.50       0.00       0.00      85.53       0.00      85.53        0.03     0.02   0.934
  RD01_13_rdsq_out_with_VS       6.06     124.41       0.00      10.14       0.00     124.39     124.56        0.03     0.02   0.955
  RD01_14_rdsq_out_no        6.06       0.00       0.00       0.00       5.83       0.00       5.83        0.02     0.01   0.962
  RD01_14_rdsq_out_with_PP       6.06      85.70       0.00       0.00      85.74       0.00      85.74        0.02     0.01   0.934
  RD01_14_rdsq_out_with_VS       6.06     125.20       0.00      10.26       0.00       0.00      90.40        0.01     0.00   0.689
  RD01_15_rdsq_out_no        6.06       0.00       0.00       0.00       5.83       0.00       5.83        0.01     0.01   0.963
  RD01_15_rdsq_out_with_PP       6.06      86.00       0.00       0.48       0.00       0.00       0.39        0.00     0.00   0.004
  RD01_15_rdsq_out_with_VS       6.06       0.31       0.00       6.30       0.00       0.00       0.01        0.00     0.00   0.001
  RD01_16_rdsq_out_no        6.06       0.00       0.00       0.00       5.84       0.00       5.84        0.01     0.01   0.963
  RD01_16_rdsq_out_with_PP       6.06      85.99       0.00       0.48       0.00       0.00       0.39        0.00     0.00   0.004
  RD01_16_rdsq_out_with_VS       6.06       0.31       0.00       7.42       0.00       0.28       0.37        0.00     0.00   0.058
  RD01_2_rdsq_out_no         6.06       0.00       0.00       0.00       5.84       0.00       5.84        0.01     0.00   0.964
  RD01_2_rdsq_out_with_PP       6.06      86.00       0.00       0.48       0.00       0.00       0.40        0.00     0.00   0.004
  RD01_2_rdsq_out_with_VS       6.06       0.31       0.00       7.43       0.00       0.27       0.39        0.00     0.00   0.061
  RD01_3_rdsq_out_no         6.06       0.00       0.00       0.00       5.81       0.00       5.81        0.04     0.02   0.958
  RD01_3_rdsq_out_with_PP       6.06      85.54       0.00       0.47       0.00       0.00       0.32        0.00     0.00   0.004
  RD01_3_rdsq_out_with_VS       6.06       0.22       0.00       7.41       0.00       0.21       0.24        0.00     0.00   0.038
  RD01_4_rdsq_out_no         6.06       0.00       0.00       0.00       5.80       0.00       5.80        0.04     0.02   0.957
  RD01_4_rdsq_out_with_PP       6.06      85.35       0.00       0.00      85.37       0.00      85.37        0.04     0.02   0.934
  RD01_4_rdsq_out_with_VS       6.06     124.09       0.00      10.14       0.00     124.07     124.19        0.04     0.02   0.954
  RD01_5_rdsq_out_no         6.06       0.00       0.00       0.00       5.83       0.00       5.83        0.02     0.01   0.962
  RD01_5_rdsq_out_with_PP       6.06      86.08       0.00       0.48       0.00       0.00       0.40        0.00     0.00   0.004
  RD01_5_rdsq_out_with_VS       6.06       0.31       0.00       7.42       0.00       0.29       0.36        0.00     0.00   0.057
  RD01_6_rdsq_out_no         6.06       0.00       0.00       0.00       5.83       0.00       5.83        0.02     0.01   0.961
  RD01_6_rdsq_out_with_PP       6.06      85.69       0.00       0.00      85.73       0.00      85.73        0.02     0.01   0.934
  RD01_6_rdsq_out_with_VS       6.06     125.24       0.00      10.26       0.00       0.00      89.41        0.01     0.00   0.681
  RD01_7_rdsq_out_no         6.06       0.00       0.00       0.00       5.80       0.00       5.80        0.02     0.01   0.958
  RD01_7_rdsq_out_with_PP       6.06      85.30       0.00       0.00      85.34       0.00      85.34        0.02     0.01   0.934
  RD01_7_rdsq_out_with_VS       6.06     124.54       0.00      10.25       0.00       0.00      90.28        0.01     0.00   0.691
  RD01_8_rdsq_out_no         6.06       0.00       0.00       0.00       5.81       0.00       5.81        0.02     0.01   0.959
  RD01_8_rdsq_out_with_PP       6.06      85.54       0.00       0.00      85.58       0.00      85.58        0.02     0.01   0.934
  RD01_8_rdsq_out_with_VS       6.06     124.25       0.00      10.14       0.00     124.21     124.49        0.02     0.01   0.955
  RD01_9_rdsq_out_no         6.06       0.00       0.00       0.00       5.82       0.00       5.82        0.02     0.01   0.959
  RD01_9_rdsq_out_with_PP       6.06      85.47       0.00       0.00      85.51       0.00      85.51        0.02     0.01   0.934
  RD01_9_rdsq_out_with_VS       6.06     124.80       0.00      10.26       0.00       0.00      85.56        0.01     0.00   0.654
  RD02_1_rdsq_out_no         6.06       0.00       0.00       0.00       5.82       0.00       5.82        0.03     0.02   0.959
  RD02_1_rdsq_out_with_PP       6.06      85.62       0.00       0.47       0.00       0.00       0.35        0.00     0.00   0.004
  RD02_1_rdsq_out_with_VS       6.06       0.26       0.00       7.41       0.00       0.25       0.28        0.00     0.00   0.045
  RD02_10_rdsq_out_no        6.06       0.00       0.00       0.00       5.82       0.00       5.82        0.04     0.02   0.960
  RD02_10_rdsq_out_with_PP       6.06      85.55       0.00       0.00      85.58       0.00      85.58        0.04     0.02   0.934
  RD02_10_rdsq_out_with_VS       6.06     124.65       0.00      10.28       0.00       0.00      65.58        0.02     0.01   0.502
  RD02_11_rdsq_out_no        6.06       0.00       0.00       0.00       5.81       0.00       5.81        0.03     0.01   0.959
  RD02_11_rdsq_out_with_PP       6.06      85.44       0.00       0.00      85.47       0.00      85.47        0.03     0.01   0.934
  RD02_11_rdsq_out_with_VS       6.06     124.63       0.00      10.27       0.00       0.00      78.70        0.02     0.01   0.602
  RD02_12_rdsq_out_no        6.06       0.00       0.00       0.00       5.82       0.00       5.82        0.03     0.01   0.959
  RD02_12_rdsq_out_with_PP       6.06      85.52       0.00       0.00      85.54       0.00      85.54        0.03     0.01   0.934
  RD02_12_rdsq_out_with_VS       6.06     124.79       0.00      10.27       0.00       0.00      77.77        0.02     0.01   0.594
  RD02_13_rdsq_out_no        6.06       0.00       0.00       0.00       5.83       0.00       5.83        0.01     0.01   0.962
  RD02_13_rdsq_out_with_PP       6.06      85.68       0.00       0.00      85.74       0.00      85.74        0.01     0.01   0.935
  RD02_13_rdsq_out_with_VS       6.06     125.50       0.00      10.24       0.00       0.00      99.01        0.01     0.00   0.753
  RD02_14_rdsq_out_no        6.06       0.00       0.00       0.00       5.82       0.00       5.82        0.01     0.01   0.961
  RD02_14_rdsq_out_with_PP       6.06      85.49       0.00       0.00      85.54       0.00      85.54        0.01     0.01   0.934
  RD02_14_rdsq_out_with_VS       6.06     124.90       0.00      10.25       0.00       0.00      95.96        0.01     0.00   0.733
  RD02_15_rdsq_out_no        6.06       0.00       0.00       0.00       5.84       0.00       5.84        0.02     0.01   0.964
  RD02_15_rdsq_out_with_PP       6.06      85.84       0.00       0.00      85.88       0.00      85.88        0.02     0.01   0.934
  RD02_15_rdsq_out_with_VS       6.06     124.72       0.00      10.14       0.00     124.68     124.96        0.02     0.01   0.955
  RD02_16_rdsq_out_no        6.06       0.00       0.00       0.00       5.84       0.00       5.84        0.02     0.01   0.963
  RD02_16_rdsq_out_with_PP       6.06      86.11       0.00       0.48       0.00       0.00       0.40        0.00     0.00   0.004
  RD02_16_rdsq_out_with_VS       6.06       0.32       0.00       6.31       0.00       0.00       0.01        0.00     0.00   0.001
  RD02_17_rdsq_out_no        6.06       0.00       0.00       0.00       5.83       0.00       5.83        0.02     0.01   0.961
  RD02_17_rdsq_out_with_PP       6.06      85.62       0.00       0.00      85.66       0.00      85.66        0.02     0.01   0.934
  RD02_17_rdsq_out_with_VS       6.06     124.67       0.00      10.14       0.00     124.64     124.86        0.02     0.01   0.955
  RD02_18_rdsq_out_no        6.06       0.00       0.00       0.00       5.85       0.00       5.85        0.01     0.01   0.965
  RD02_18_rdsq_out_with_PP       6.06      85.91       0.00       0.00      85.97       0.00      85.97        0.01     0.01   0.935
  RD02_18_rdsq_out_with_VS       6.06     125.84       0.00      10.24       0.00       0.00      99.84        0.01     0.00   0.757
  RD02_19_rdsq_out_no        6.06       0.00       0.00       0.00       5.83       0.00       5.83        0.02     0.01   0.962
  RD02_19_rdsq_out_with_PP       6.06      85.79       0.00       0.48       0.00       0.00       0.37        0.00     0.00   0.004
  RD02_19_rdsq_out_with_VS       6.06       0.28       0.00       7.42       0.00       0.26       0.33        0.00     0.00   0.053
  RD02_2_rdsq_out_no         6.06       0.00       0.00       0.00       5.81       0.00       5.81        0.03     0.02   0.959
  RD02_2_rdsq_out_with_PP       6.06      85.44       0.00       0.00      85.47       0.00      85.47        0.03     0.02   0.934
  RD02_2_rdsq_out_with_VS       6.06     124.61       0.00      10.27       0.00       0.00      71.66        0.02     0.01   0.548
  RD02_20_rdsq_out_no        6.06       0.00       0.00       0.00       5.83       0.00       5.83        0.01     0.01   0.962
  RD02_20_rdsq_out_with_PP       6.06      85.97       0.00       0.48       0.00       0.00       0.39        0.00     0.00   0.004
  RD02_20_rdsq_out_with_VS       6.06       0.30       0.00       7.42       0.00       0.28       0.35        0.00     0.00   0.056
  RD02_21_rdsq_out_no        6.06       0.00       0.00       0.00       5.81       0.00       5.81        0.02     0.01   0.959
  RD02_21_rdsq_out_with_PP       6.06      85.60       0.00       0.47       0.00       0.00       0.35        0.00     0.00   0.004
  RD02_21_rdsq_out_with_VS       6.06       0.25       0.00       7.42       0.00       0.24       0.29        0.00     0.00   0.046
  RD02_22_rdsq_out_no        6.06       0.00       0.00       0.00       5.81       0.00       5.81        0.02     0.01   0.959
  RD02_22_rdsq_out_with_PP       6.06      85.53       0.00       0.00      85.57       0.00      85.57        0.02     0.01   0.934
  RD02_22_rdsq_out_with_VS       6.06     124.44       0.00      10.14       0.00     124.41     124.63        0.02     0.01   0.955
  RD02_3_rdsq_out_no         6.06       0.00       0.00       0.00       5.82       0.00       5.82        0.03     0.01   0.960
  RD02_3_rdsq_out_with_PP       6.06      85.70       0.00       0.48       0.00       0.00       0.36        0.00     0.00   0.004
  RD02_3_rdsq_out_with_VS       6.06       0.26       0.00       6.26       0.00       0.00       0.00        0.00     0.00   0.001
  RD02_4_rdsq_out_no         6.06       0.00       0.00       0.00       5.81       0.00       5.81        0.03     0.01   0.959
  RD02_4_rdsq_out_with_PP       6.06      85.50       0.00       0.00      85.53       0.00      85.53        0.03     0.01   0.934
  RD02_4_rdsq_out_with_VS       6.06     124.71       0.00      10.27       0.00       0.00      78.76        0.02     0.01   0.602
  RD02_5_rdsq_out_no         6.06       0.00       0.00       0.00       5.83       0.00       5.83        0.02     0.01   0.961
  RD02_5_rdsq_out_with_PP       6.06      85.62       0.00       0.00      85.65       0.00      85.65        0.02     0.01   0.934
  RD02_5_rdsq_out_with_VS       6.06     124.95       0.00      10.26       0.00       0.00      87.01        0.01     0.00   0.664
  RD02_6_rdsq_out_no         6.06       0.00       0.00       0.00       5.85       0.00       5.85        0.02     0.01   0.964
  RD02_6_rdsq_out_with_PP       6.06      86.04       0.00       0.00      86.07       0.00      86.07        0.02     0.01   0.935
  RD02_6_rdsq_out_with_VS       6.06     125.06       0.00      10.14       0.00     125.02     125.26        0.02     0.01   0.955
  RD02_7_rdsq_out_no         6.06       0.00       0.00       0.00       5.84       0.00       5.84        0.01     0.01   0.964
  RD02_7_rdsq_out_with_PP       6.06      86.15       0.00       0.48       0.00       0.00       0.41        0.00     0.00   0.004
  RD02_7_rdsq_out_with_VS       6.06       0.32       0.00       7.42       0.00       0.30       0.38        0.00     0.00   0.060
  RD02_8_rdsq_out_no         6.06       0.00       0.00       0.00       5.83       0.00       5.83        0.02     0.01   0.962
  RD02_8_rdsq_out_with_PP       6.06      85.93       0.00       0.48       0.00       0.00       0.39        0.00     0.00   0.004
  RD02_8_rdsq_out_with_VS       6.06       0.30       0.00       7.42       0.00       0.28       0.34        0.00     0.00   0.054
  RD02_9_rdsq_out_no         6.06       0.00       0.00       0.00       5.81       0.00       5.81        0.04     0.02   0.959
  RD02_9_rdsq_out_with_PP       6.06      85.42       0.00       0.00      85.44       0.00      85.44        0.04     0.02   0.934
  RD02_9_rdsq_out_with_VS       6.06     124.40       0.00      10.14       0.00     124.38     124.50        0.04     0.02   0.954
  RD03_1_rdsq_out_no         6.06       0.00       0.00       0.00       5.81       0.00       5.81        0.04     0.02   0.959
  RD03_1_rdsq_out_with_PP       6.06      85.47       0.00       0.00      85.50       0.00      85.50        0.04     0.02   0.934
  RD03_1_rdsq_out_with_VS       6.06     124.48       0.00      10.14       0.00     124.46     124.60        0.04     0.02   0.954
  RD03_10_rdsq_out_no        6.06       0.00       0.00       0.00       5.80       0.00       5.80        0.03     0.02   0.958
  RD03_10_rdsq_out_with_PP       6.06      85.50       0.00       0.47       0.00       0.00       0.31        0.00     0.00   0.003
  RD03_10_rdsq_out_with_VS       6.06       0.19       0.00       7.41       0.00       0.18       0.22        0.00     0.00   0.035
  RD03_2_rdsq_out_no         6.06       0.00       0.00       0.00       5.81       0.00       5.81        0.04     0.02   0.959
  RD03_2_rdsq_out_with_PP       6.06      85.49       0.00       0.00      85.51       0.00      85.51        0.04     0.02   0.934
  RD03_2_rdsq_out_with_VS       6.06     124.59       0.00      10.28       0.00       0.00      64.50        0.02     0.01   0.494
  RD03_3_rdsq_out_no         6.06       0.00       0.00       0.00       5.78       0.00       5.78        0.04     0.02   0.954
  RD03_3_rdsq_out_with_PP       6.06      85.11       0.00       0.47       0.00       0.00       0.28        0.00     0.00   0.003
  RD03_3_rdsq_out_with_VS       6.06       0.17       0.00       6.54       0.00       0.16       0.19        0.00     0.00   0.031
  RD03_4_rdsq_out_no         6.06       0.00       0.00       0.00       5.78       0.00       5.78        0.04     0.02   0.954
  RD03_4_rdsq_out_with_PP       6.06      85.03       0.00       0.47       0.00       0.00       0.27        0.00     0.00   0.003
  RD03_4_rdsq_out_with_VS       6.06       0.16       0.00       6.54       0.00       0.16       0.19        0.00     0.00   0.031
  RD03_5_rdsq_out_no         6.06       0.00       0.00       0.00       5.82       0.00       5.82        0.03     0.01   0.961
  RD03_5_rdsq_out_with_PP       6.06      85.69       0.00       0.48       0.00       0.00       0.36        0.00     0.00   0.004
  RD03_5_rdsq_out_with_VS       6.06       0.27       0.00       6.27       0.00       0.00       0.00        0.00     0.00   0.001
  RD03_6_rdsq_out_no         6.06       0.00       0.00       0.00       5.82       0.00       5.82        0.03     0.02   0.961
  RD03_6_rdsq_out_with_PP       6.06      85.71       0.00       0.00      85.73       0.00      85.73        0.03     0.02   0.934
  RD03_6_rdsq_out_with_VS       6.06     124.78       0.00      10.14       0.00     124.76     124.93        0.03     0.02   0.955
  RD03_7_rdsq_out_no         6.06       0.00       0.00       0.00       5.82       0.00       5.82        0.03     0.02   0.961
  RD03_7_rdsq_out_with_PP       6.06      85.61       0.00       0.00      85.63       0.00      85.63        0.03     0.02   0.934
  RD03_7_rdsq_out_with_VS       6.06     124.59       0.00      10.14       0.00     124.56     124.74        0.03     0.02   0.955
  RD03_8_rdsq_out_no         6.06       0.00       0.00       0.00       5.82       0.00       5.82        0.03     0.02   0.960
  RD03_8_rdsq_out_with_PP       6.06      85.75       0.00       0.48       0.00       0.00       0.36        0.00     0.00   0.004
  RD03_8_rdsq_out_with_VS       6.06       0.27       0.00       6.27       0.00       0.00       0.00        0.00     0.00   0.000
  RD03_9_rdsq_out_no         6.06       0.00       0.00       0.00       5.82       0.00       5.82        0.03     0.02   0.960
  RD03_9_rdsq_out_with_PP       6.06      85.55       0.00       0.00      85.57       0.00      85.57        0.03     0.02   0.934
  RD03_9_rdsq_out_with_VS       6.06     124.77       0.00      10.27       0.00       0.00      75.30        0.02     0.01   0.576
  RD04_1_rdsq_out_no         6.06       0.00       0.00       0.00       5.84       0.00       5.84        0.02     0.01   0.964
  RD04_1_rdsq_out_with_PP       6.06      86.15       0.00       0.48       0.00       0.00       0.41        0.00     0.00   0.004
  RD04_1_rdsq_out_with_VS       6.06       0.32       0.00       6.32       0.00       0.00       0.01        0.00     0.00   0.001
  RD04_10_rdsq_out_no        6.06       0.00       0.00       0.00       5.83       0.00       5.83        0.02     0.01   0.962
  RD04_10_rdsq_out_with_PP       6.06      85.77       0.00       0.00      85.80       0.00      85.80        0.02     0.01   0.934
  RD04_10_rdsq_out_with_VS       6.06     124.61       0.00      10.14       0.00     124.58     124.80        0.02     0.01   0.955
  RD04_11_rdsq_out_no        6.06       0.00       0.00       0.00       5.83       0.00       5.83        0.04     0.02   0.961
  RD04_11_rdsq_out_with_PP       6.06      85.82       0.00       0.48       0.00       0.00       0.37        0.00     0.00   0.004
  RD04_11_rdsq_out_with_VS       6.06       0.28       0.00       7.41       0.00       0.28       0.31        0.00     0.00   0.048
  RD04_12_rdsq_out_no        6.06       0.00       0.00       0.00       5.81       0.00       5.81        0.04     0.02   0.959
  RD04_12_rdsq_out_with_PP       6.06      85.44       0.00       0.00      85.46       0.00      85.46        0.04     0.02   0.934
  RD04_12_rdsq_out_with_VS       6.06     124.50       0.00      10.28       0.00       0.00      64.83        0.02     0.01   0.497
  RD04_2_rdsq_out_no         6.06       0.00       0.00       0.00       5.82       0.00       5.82        0.03     0.02   0.961
  RD04_2_rdsq_out_with_PP       6.06      85.71       0.00       0.48       0.00       0.00       0.36        0.00     0.00   0.004
  RD04_2_rdsq_out_with_VS       6.06       0.27       0.00       6.27       0.00       0.00       0.00        0.00     0.00   0.000
  RD04_3_rdsq_out_no         6.06       0.00       0.00       0.00       5.81       0.00       5.81        0.03     0.02   0.958
  RD04_3_rdsq_out_with_PP       6.06      85.43       0.00       0.00      85.46       0.00      85.46        0.03     0.02   0.934
  RD04_3_rdsq_out_with_VS       6.06     124.26       0.00      10.14       0.00     124.24     124.39        0.03     0.02   0.954
  RD04_4_rdsq_out_no         6.06       0.00       0.00       0.00       5.81       0.00       5.81        0.03     0.02   0.958
  RD04_4_rdsq_out_with_PP       6.06      85.46       0.00       0.00      85.49       0.00      85.49        0.03     0.02   0.934
  RD04_4_rdsq_out_with_VS       6.06     124.57       0.00      10.27       0.00       0.00      73.01        0.02     0.01   0.559
  RD04_5_rdsq_out_no         6.06       0.00       0.00       0.00       5.83       0.00       5.83        0.04     0.02   0.962
  RD04_5_rdsq_out_with_PP       6.06      85.81       0.00       0.00      85.83       0.00      85.83        0.04     0.02   0.934
  RD04_5_rdsq_out_with_VS       6.06     124.89       0.00      10.14       0.00     124.87     124.98        0.04     0.02   0.954
  RD04_6_rdsq_out_no         6.06       0.00       0.00       0.00       5.83       0.00       5.83        0.04     0.02   0.961
  RD04_6_rdsq_out_with_PP       6.06      85.75       0.00       0.00      85.78       0.00      85.78        0.04     0.02   0.934
  RD04_6_rdsq_out_with_VS       6.06     125.07       0.00      10.28       0.00       0.00      69.43        0.02     0.01   0.530
  RD04_7_rdsq_out_no         6.06       0.00       0.00       0.00       5.82       0.00       5.82        0.03     0.02   0.961
  RD04_7_rdsq_out_with_PP       6.06      85.61       0.00       0.00      85.63       0.00      85.63        0.03     0.02   0.934
  RD04_7_rdsq_out_with_VS       6.06     124.61       0.00      10.14       0.00     124.59     124.76        0.03     0.02   0.955
  RD04_8_rdsq_out_no         6.06       0.00       0.00       0.00       5.80       0.00       5.80        0.02     0.01   0.957
  RD04_8_rdsq_out_with_PP       6.06      85.26       0.00       0.00      85.29       0.00      85.29        0.02     0.01   0.934
  RD04_8_rdsq_out_with_VS       6.06     124.14       0.00      10.14       0.00     124.11     124.32        0.02     0.01   0.955
  RD04_9_rdsq_out_no         6.06       0.00       0.00       0.00       5.83       0.00       5.83        0.02     0.01   0.962
  RD04_9_rdsq_out_with_PP       6.06      85.64       0.00       0.00      85.67       0.00      85.67        0.02     0.01   0.934
  RD04_9_rdsq_out_with_VS       6.06     124.64       0.00      10.14       0.00     124.61     124.83        0.02     0.01   0.955
  RD05_1_rdsq_out_no         6.06       0.00       0.00       0.00       5.83       0.00       5.83        0.03     0.01   0.962
  RD05_1_rdsq_out_with_PP       6.06      85.82       0.00       0.00      85.85       0.00      85.85        0.03     0.01   0.934
  RD05_1_rdsq_out_with_VS       6.06     125.01       0.00      10.27       0.00       0.00      79.08        0.02     0.01   0.603
  RD05_10_rdsq_out_no        6.06       0.00       0.00       0.00       5.84       0.00       5.84        0.02     0.01   0.964
  RD05_10_rdsq_out_with_PP       6.06      85.79       0.00       0.00      85.83       0.00      85.83        0.02     0.01   0.934
  RD05_10_rdsq_out_with_VS       6.06     125.61       0.00      10.26       0.00       0.00      92.45        0.01     0.00   0.702
  RD05_11_rdsq_out_no        6.06       0.00       0.00       0.00       5.85       0.00       5.85        0.01     0.00   0.966
  RD05_11_rdsq_out_with_PP       6.06      86.02       0.00       0.00      86.08       0.00      86.08        0.01     0.00   0.935
  RD05_11_rdsq_out_with_VS       6.06     125.81       0.00      10.24       0.00       0.00     102.61        0.01     0.00   0.778
  RD05_12_rdsq_out_no        6.06       0.00       0.00       0.00       5.86       0.00       5.86        0.01     0.00   0.966
  RD05_12_rdsq_out_with_PP       6.06      86.04       0.00       0.00      86.11       0.00      86.11        0.01     0.00   0.935
  RD05_12_rdsq_out_with_VS       6.06     125.85       0.00      10.24       0.00       0.00     102.66        0.01     0.00   0.778
  RD05_13_rdsq_out_no        6.06       0.00       0.00       0.00       5.83       0.00       5.83        0.03     0.01   0.961
  RD05_13_rdsq_out_with_PP       6.06      85.76       0.00       0.48       0.00       0.00       0.37        0.00     0.00   0.004
  RD05_13_rdsq_out_with_VS       6.06       0.28       0.00       7.41       0.00       0.27       0.31        0.00     0.00   0.049
  RD05_14_rdsq_out_no        6.06       0.00       0.00       0.00       5.83       0.00       5.83        0.03     0.02   0.963
  RD05_14_rdsq_out_with_PP       6.06      85.96       0.00       0.48       0.00       0.00       0.39        0.00     0.00   0.004
  RD05_14_rdsq_out_with_VS       6.06       0.30       0.00       6.30       0.00       0.00       0.00        0.00     0.00   0.000
  RD05_15_rdsq_out_no        6.06       0.00       0.00       0.00       5.83       0.00       5.83        0.01     0.01   0.962
  RD05_15_rdsq_out_with_PP       6.06      85.86       0.00       0.48       0.00       0.00       0.38        0.00     0.00   0.004
  RD05_15_rdsq_out_with_VS       6.06       0.29       0.00       7.42       0.00       0.26       0.36        0.00     0.00   0.056
  RD05_16_rdsq_out_no        6.06       0.00       0.00       0.00       5.82       0.00       5.82        0.01     0.01   0.960
  RD05_16_rdsq_out_with_PP       6.06      85.62       0.00       0.48       0.00       0.00       0.35        0.00     0.00   0.004
  RD05_16_rdsq_out_with_VS       6.06       0.26       0.00       7.42       0.00       0.22       0.31        0.00     0.00   0.049
  RD05_17_rdsq_out_no        6.06       0.00       0.00       0.00       5.82       0.00       5.82        0.01     0.01   0.960
  RD05_17_rdsq_out_with_PP       6.06      85.83       0.00       0.48       0.00       0.00       0.37        0.00     0.00   0.004
  RD05_17_rdsq_out_with_VS       6.06       0.28       0.00       6.27       0.00       0.00       0.01        0.00     0.00   0.001
  RD05_18_rdsq_out_no        6.06       0.00       0.00       0.00       5.83       0.00       5.83        0.01     0.01   0.961
  RD05_18_rdsq_out_with_PP       6.06      85.84       0.00       0.48       0.00       0.00       0.38        0.00     0.00   0.004
  RD05_18_rdsq_out_with_VS       6.06       0.29       0.00       6.28       0.00       0.00       0.01        0.00     0.00   0.001
  RD05_19_rdsq_out_no        6.06       0.00       0.00       0.00       5.84       0.00       5.84        0.01     0.01   0.963
  RD05_19_rdsq_out_with_PP       6.06      86.10       0.00       0.48       0.00       0.00       0.40        0.00     0.00   0.004
  RD05_19_rdsq_out_with_VS       6.06       0.32       0.00       7.42       0.00       0.29       0.38        0.00     0.00   0.060
  RD05_2_rdsq_out_no         6.06       0.00       0.00       0.00       5.79       0.00       5.79        0.03     0.02   0.955
  RD05_2_rdsq_out_with_PP       6.06      85.13       0.00       0.00      85.16       0.00      85.16        0.03     0.02   0.934
  RD05_2_rdsq_out_with_VS       6.06     123.91       0.00      10.14       0.00     123.89     124.05        0.03     0.02   0.954
  RD05_20_rdsq_out_no        6.06       0.00       0.00       0.00       5.82       0.00       5.82        0.01     0.01   0.961
  RD05_20_rdsq_out_with_PP       6.06      85.45       0.00       0.00      85.51       0.00      85.51        0.01     0.01   0.934
  RD05_20_rdsq_out_with_VS       6.06     124.34       0.00      10.15       0.00     124.28     124.65        0.01     0.01   0.956
  RD05_21_rdsq_out_no        6.06       0.00       0.00       0.00       5.84       0.00       5.84        0.01     0.00   0.964
  RD05_21_rdsq_out_with_PP       6.06      85.89       0.00       0.00      85.97       0.00      85.97        0.01     0.00   0.935
  RD05_21_rdsq_out_with_VS       6.06     126.12       0.00      10.23       0.00       0.00     105.21        0.01     0.00   0.796
  RD05_22_rdsq_out_no        6.06       0.00       0.00       0.00       5.85       0.00       5.85        0.01     0.00   0.965
  RD05_22_rdsq_out_with_PP       6.06      86.17       0.00       0.48       0.00       0.00       0.41        0.00     0.00   0.004
  RD05_22_rdsq_out_with_VS       6.06       0.33       0.00       6.32       0.00       0.00       0.01        0.00     0.00   0.002
  RD05_23_rdsq_out_no        6.06       0.00       0.00       0.00       5.83       0.00       5.83        0.01     0.01   0.962
  RD05_23_rdsq_out_with_PP       6.06      86.08       0.00       0.48       0.00       0.00       0.40        0.00     0.00   0.004
  RD05_23_rdsq_out_with_VS       6.06       0.31       0.00       7.42       0.00       0.29       0.37        0.00     0.00   0.059
  RD05_24_rdsq_out_no        6.06       0.00       0.00       0.00       5.83       0.00       5.83        0.01     0.01   0.962
  RD05_24_rdsq_out_with_PP       6.06      85.97       0.00       0.48       0.00       0.00       0.39        0.00     0.00   0.004
  RD05_24_rdsq_out_with_VS       6.06       0.30       0.00       6.30       0.00       0.00       0.01        0.00     0.00   0.001
  RD05_25_rdsq_out_no        6.06       0.00       0.00       0.00       5.84       0.00       5.84        0.01     0.00   0.964
  RD05_25_rdsq_out_with_PP       6.06      85.60       0.00       0.00      85.67       0.00      85.67        0.01     0.00   0.935
  RD05_25_rdsq_out_with_VS       6.06     124.57       0.00      10.15       0.00     124.49     124.96        0.01     0.00   0.957
  RD05_26_rdsq_out_no        6.06       0.00       0.00       0.00       5.85       0.00       5.85        0.01     0.00   0.965
  RD05_26_rdsq_out_with_PP       6.06      86.20       0.00       0.48       0.00       0.00       0.42        0.00     0.00   0.005
  RD05_26_rdsq_out_with_VS       6.06       0.33       0.00       7.42       0.00       0.30       0.42        0.00     0.00   0.065
  RD05_3_rdsq_out_no         6.06       0.00       0.00       0.00       5.82       0.00       5.82        0.03     0.02   0.960
  RD05_3_rdsq_out_with_PP       6.06      85.69       0.00       0.48       0.00       0.00       0.36        0.00     0.00   0.004
  RD05_3_rdsq_out_with_VS       6.06       0.26       0.00       7.41       0.00       0.25       0.29        0.00     0.00   0.046
  RD05_4_rdsq_out_no         6.06       0.00       0.00       0.00       5.78       0.00       5.78        0.03     0.02   0.954
  RD05_4_rdsq_out_with_PP       6.06      85.14       0.00       0.47       0.00       0.00       0.28        0.00     0.00   0.003
  RD05_4_rdsq_out_with_VS       6.06       0.17       0.00       6.18       0.00       0.00       0.00        0.00     0.00   0.000
  RD05_5_rdsq_out_no         6.06       0.00       0.00       0.00       5.86       0.00       5.86        0.01     0.01   0.966
  RD05_5_rdsq_out_with_PP       6.06      86.39       0.00       0.48       0.00       0.00       0.43        0.00     0.00   0.005
  RD05_5_rdsq_out_with_VS       6.06       0.35       0.00       6.34       0.00       0.00       0.01        0.00     0.00   0.001
  RD05_6_rdsq_out_no         6.06       0.00       0.00       0.00       5.84       0.00       5.84        0.01     0.01   0.963
  RD05_6_rdsq_out_with_PP       6.06      85.76       0.00       0.00      85.81       0.00      85.81        0.01     0.01   0.935
  RD05_6_rdsq_out_with_VS       6.06     125.27       0.00      10.25       0.00       0.00      97.13        0.01     0.00   0.740
  RD05_7_rdsq_out_no         6.06       0.00       0.00       0.00       5.86       0.00       5.86        0.01     0.00   0.967
  RD05_7_rdsq_out_with_PP       6.06      86.34       0.00       0.48       0.00       0.00       0.43        0.00     0.00   0.005
  RD05_7_rdsq_out_with_VS       6.06       0.35       0.00       7.43       0.00       0.31       0.44        0.00     0.00   0.069
  RD05_8_rdsq_out_no         6.06       0.00       0.00       0.00       5.86       0.00       5.86        0.01     0.00   0.966
  RD05_8_rdsq_out_with_PP       6.06      86.34       0.00       0.48       0.00       0.00       0.43        0.00     0.00   0.005
  RD05_8_rdsq_out_with_VS       6.06       0.35       0.00       7.43       0.00       0.30       0.44        0.00     0.00   0.069
  RD05_9_rdsq_out_no         6.06       0.00       0.00       0.00       5.83       0.00       5.83        0.02     0.01   0.963
  RD05_9_rdsq_out_with_PP       6.06      85.90       0.00       0.48       0.00       0.00       0.39        0.00     0.00   0.004
  RD05_9_rdsq_out_with_VS       6.06       0.30       0.00       7.42       0.00       0.28       0.35        0.00     0.00   0.055
  RD06_1_rdsq_out_no         6.06       0.00       0.00       0.00       5.85       0.00       5.85        0.02     0.01   0.964
  RD06_1_rdsq_out_with_PP       6.06      85.88       0.00       0.00      85.92       0.00      85.92        0.01     0.01   0.935
  RD06_1_rdsq_out_with_VS       6.06     125.69       0.00      10.26       0.00       0.00      93.59        0.01     0.00   0.710
  RD06_10_rdsq_out_no        6.06       0.00       0.00       0.00       5.81       0.00       5.81        0.03     0.01   0.959
  RD06_10_rdsq_out_with_PP       6.06      85.52       0.00       0.00      85.55       0.00      85.55        0.03     0.01   0.934
  RD06_10_rdsq_out_with_VS       6.06     124.80       0.00      10.27       0.00       0.00      77.76        0.02     0.01   0.594
  RD06_11_rdsq_out_no        6.06       0.00       0.00       0.00       5.82       0.00       5.82        0.02     0.01   0.961
  RD06_11_rdsq_out_with_PP       6.06      85.62       0.00       0.00      85.65       0.00      85.65        0.02     0.01   0.934
  RD06_11_rdsq_out_with_VS       6.06     125.10       0.00      10.26       0.00       0.00      84.34        0.01     0.00   0.643
  RD06_12_rdsq_out_no        6.06       0.00       0.00       0.00       5.81       0.00       5.81        0.02     0.01   0.959
  RD06_12_rdsq_out_with_PP       6.06      85.38       0.00       0.00      85.41       0.00      85.41        0.02     0.01   0.934
  RD06_12_rdsq_out_with_VS       6.06     124.40       0.00      10.14       0.00     124.37     124.60        0.02     0.01   0.955
  RD06_13_rdsq_out_no        6.06       0.00       0.00       0.00       5.86       0.00       5.86        0.01     0.01   0.967
  RD06_13_rdsq_out_with_PP       6.06      85.96       0.00       0.00      86.01       0.00      86.01        0.01     0.01   0.935
  RD06_13_rdsq_out_with_VS       6.06     126.06       0.00      10.25       0.00       0.00      96.98        0.01     0.00   0.734
  RD06_14_rdsq_out_no        6.06       0.00       0.00       0.00       5.84       0.00       5.84        0.01     0.01   0.963
  RD06_14_rdsq_out_with_PP       6.06      86.16       0.00       0.48       0.00       0.00       0.41        0.00     0.00   0.004
  RD06_14_rdsq_out_with_VS       6.06       0.32       0.00       6.31       0.00       0.00       0.01        0.00     0.00   0.001
  RD06_15_rdsq_out_no        6.06       0.00       0.00       0.00       5.81       0.00       5.81        0.03     0.02   0.959
  RD06_15_rdsq_out_with_PP       6.06      85.47       0.00       0.00      85.50       0.00      85.50        0.03     0.02   0.934
  RD06_15_rdsq_out_with_VS       6.06     124.44       0.00      10.14       0.00     124.43     124.58        0.03     0.02   0.955
  RD06_16_rdsq_out_no        6.06       0.00       0.00       0.00       5.81       0.00       5.81        0.04     0.02   0.958
  RD06_16_rdsq_out_with_PP       6.06      85.44       0.00       0.00      85.46       0.00      85.46        0.04     0.02   0.934
  RD06_16_rdsq_out_with_VS       6.06     124.32       0.00      10.14       0.00     124.30     124.42        0.04     0.02   0.954
  RD06_17_rdsq_out_no        6.06       0.00       0.00       0.00       5.82       0.00       5.82        0.03     0.01   0.960
  RD06_17_rdsq_out_with_PP       6.06      85.69       0.00       0.48       0.00       0.00       0.36        0.00     0.00   0.004
  RD06_17_rdsq_out_with_VS       6.06       0.27       0.00       6.27       0.00       0.00       0.00        0.00     0.00   0.001
  RD06_18_rdsq_out_no        6.06       0.00       0.00       0.00       5.83       0.00       5.83        0.02     0.01   0.961
  RD06_18_rdsq_out_with_PP       6.06      85.63       0.00       0.00      85.67       0.00      85.67        0.02     0.01   0.934
  RD06_18_rdsq_out_with_VS       6.06     124.95       0.00      10.27       0.00       0.00      82.97        0.01     0.00   0.633
  RD06_19_rdsq_out_no        6.06       0.00       0.00       0.00       5.83       0.00       5.83        0.02     0.01   0.962
  RD06_19_rdsq_out_with_PP       6.06      86.04       0.00       0.48       0.00       0.00       0.39        0.00     0.00   0.004
  RD06_19_rdsq_out_with_VS       6.06       0.31       0.00       6.30       0.00       0.00       0.01        0.00     0.00   0.001
  RD06_2_rdsq_out_no         6.06       0.00       0.00       0.00       5.85       0.00       5.85        0.02     0.01   0.965
  RD06_2_rdsq_out_with_PP       6.06      86.17       0.00       0.48       0.00       0.00       0.41        0.00     0.00   0.004
  RD06_2_rdsq_out_with_VS       6.06       0.33       0.00       7.42       0.00       0.31       0.38        0.00     0.00   0.059
  RD06_20_rdsq_out_no        6.06       0.00       0.00       0.00       5.83       0.00       5.83        0.01     0.01   0.962
  RD06_20_rdsq_out_with_PP       6.06      85.89       0.00       0.48       0.00       0.00       0.38        0.00     0.00   0.004
  RD06_20_rdsq_out_with_VS       6.06       0.30       0.00       6.29       0.00       0.00       0.01        0.00     0.00   0.001
  RD06_21_rdsq_out_no        6.06       0.00       0.00       0.00       5.84       0.00       5.84        0.02     0.01   0.963
  RD06_21_rdsq_out_with_PP       6.06      85.94       0.00       0.48       0.00       0.00       0.39        0.00     0.00   0.004
  RD06_21_rdsq_out_with_VS       6.06       0.30       0.00       6.30       0.00       0.00       0.01        0.00     0.00   0.001
  RD06_22_rdsq_out_no        6.06       0.00       0.00       0.00       5.83       0.00       5.83        0.01     0.01   0.963
  RD06_22_rdsq_out_with_PP       6.06      85.93       0.00       0.48       0.00       0.00       0.39        0.00     0.00   0.004
  RD06_22_rdsq_out_with_VS       6.06       0.30       0.00       6.29       0.00       0.00       0.01        0.00     0.00   0.001
  RD06_23_rdsq_out_no        6.06       0.00       0.00       0.00       5.83       0.00       5.83        0.02     0.01   0.962
  RD06_23_rdsq_out_with_PP       6.06      85.92       0.00       0.48       0.00       0.00       0.39        0.00     0.00   0.004
  RD06_23_rdsq_out_with_VS       6.06       0.30       0.00       6.29       0.00       0.00       0.00        0.00     0.00   0.001
  RD06_24_rdsq_out_no        6.06       0.00       0.00       0.00       5.83       0.00       5.83        0.02     0.01   0.962
  RD06_24_rdsq_out_with_PP       6.06      85.95       0.00       0.48       0.00       0.00       0.39        0.00     0.00   0.004
  RD06_24_rdsq_out_with_VS       6.06       0.30       0.00       7.42       0.00       0.28       0.34        0.00     0.00   0.054
  RD06_3_rdsq_out_no         6.06       0.00       0.00       0.00       5.82       0.00       5.82        0.02     0.01   0.960
  RD06_3_rdsq_out_with_PP       6.06      85.65       0.00       0.48       0.00       0.00       0.36        0.00     0.00   0.004
  RD06_3_rdsq_out_with_VS       6.06       0.26       0.00       7.42       0.00       0.25       0.30        0.00     0.00   0.048
  RD06_4_rdsq_out_no         6.06       0.00       0.00       0.00       5.81       0.00       5.81        0.02     0.01   0.959
  RD06_4_rdsq_out_with_PP       6.06      85.66       0.00       0.47       0.00       0.00       0.35        0.00     0.00   0.004
  RD06_4_rdsq_out_with_VS       6.06       0.26       0.00       6.26       0.00       0.00       0.00        0.00     0.00   0.001
  RD06_5_rdsq_out_no         6.06       0.00       0.00       0.00       5.82       0.00       5.82        0.02     0.01   0.960
  RD06_5_rdsq_out_with_PP       6.06      85.78       0.00       0.48       0.00       0.00       0.37        0.00     0.00   0.004
  RD06_5_rdsq_out_with_VS       6.06       0.28       0.00       6.28       0.00       0.00       0.00        0.00     0.00   0.001
  RD06_6_rdsq_out_no         6.06       0.00       0.00       0.00       5.83       0.00       5.83        0.01     0.01   0.962
  RD06_6_rdsq_out_with_PP       6.06      86.04       0.00       0.48       0.00       0.00       0.39        0.00     0.00   0.004
  RD06_6_rdsq_out_with_VS       6.06       0.31       0.00       7.42       0.00       0.28       0.37        0.00     0.00   0.058
  RD06_7_rdsq_out_no         6.06       0.00       0.00       0.00       5.81       0.00       5.81        0.03     0.01   0.959
  RD06_7_rdsq_out_with_PP       6.06      85.38       0.00       0.00      85.41       0.00      85.41        0.03     0.01   0.934
  RD06_7_rdsq_out_with_VS       6.06     124.17       0.00      10.14       0.00     124.15     124.33        0.03     0.01   0.955
  RD06_8_rdsq_out_no         6.06       0.00       0.00       0.00       5.83       0.00       5.83        0.02     0.01   0.961
  RD06_8_rdsq_out_with_PP       6.06      85.71       0.00       0.00      85.74       0.00      85.74        0.02     0.01   0.934
  RD06_8_rdsq_out_with_VS       6.06     124.71       0.00      10.14       0.00     124.69     124.88        0.02     0.01   0.955
  RD06_9_rdsq_out_no         6.06       0.00       0.00       0.00       5.83       0.00       5.83        0.01     0.01   0.962
  RD06_9_rdsq_out_with_PP       6.06      85.54       0.00       0.00      85.59       0.00      85.59        0.01     0.01   0.934
  RD06_9_rdsq_out_with_VS       6.06     125.36       0.00      10.24       0.00       0.00      97.36        0.01     0.00   0.741
  RD07_1_rdsq_out_no         6.06       0.00       0.00       0.00       5.80       0.00       5.80        0.07     0.04   0.957
  RD07_1_rdsq_out_with_PP       6.06      85.39       0.00       0.47       0.00       0.00       0.30        0.00     0.00   0.003
  RD07_1_rdsq_out_with_VS       6.06       0.18       0.00       6.54       0.00       0.18       0.20        0.00     0.00   0.032
  RD07_10_rdsq_out_no        6.06       0.00       0.00       0.00       5.82       0.00       5.82        0.02     0.01   0.960
  RD07_10_rdsq_out_with_PP       6.06      85.80       0.00       0.48       0.00       0.00       0.37        0.00     0.00   0.004
  RD07_10_rdsq_out_with_VS       6.06       0.28       0.00       7.42       0.00       0.27       0.31        0.00     0.00   0.050
  RD07_11_rdsq_out_no        6.06       0.00       0.00       0.00       5.82       0.00       5.82        0.03     0.02   0.959
  RD07_11_rdsq_out_with_PP       6.06      85.50       0.00       0.00      85.53       0.00      85.53        0.03     0.02   0.934
  RD07_11_rdsq_out_with_VS       6.06     124.52       0.00      10.14       0.00     124.51     124.65        0.03     0.02   0.955
  RD07_12_rdsq_out_no        6.06       0.00       0.00       0.00       5.84       0.00       5.84        0.02     0.01   0.963
  RD07_12_rdsq_out_with_PP       6.06      85.82       0.00       0.00      85.85       0.00      85.85        0.02     0.01   0.934
  RD07_12_rdsq_out_with_VS       6.06     125.29       0.00      10.27       0.00       0.00      82.15        0.02     0.00   0.625
  RD07_13_rdsq_out_no        6.06       0.00       0.00       0.00       5.82       0.00       5.82        0.03     0.01   0.960
  RD07_13_rdsq_out_with_PP       6.06      85.63       0.00       0.48       0.00       0.00       0.35        0.00     0.00   0.004
  RD07_13_rdsq_out_with_VS       6.06       0.26       0.00       6.26       0.00       0.00       0.00        0.00     0.00   0.001
  RD07_14_rdsq_out_no        6.06       0.00       0.00       0.00       5.82       0.00       5.82        0.02     0.01   0.960
  RD07_14_rdsq_out_with_PP       6.06      85.76       0.00       0.48       0.00       0.00       0.37        0.00     0.00   0.004
  RD07_14_rdsq_out_with_VS       6.06       0.28       0.00       7.42       0.00       0.26       0.31        0.00     0.00   0.049
  RD07_15_rdsq_out_no        6.06       0.00       0.00       0.00       5.81       0.00       5.81        0.04     0.02   0.959
  RD07_15_rdsq_out_with_PP       6.06      85.60       0.00       0.47       0.00       0.00       0.34        0.00     0.00   0.004
  RD07_15_rdsq_out_with_VS       6.06       0.25       0.00       7.41       0.00       0.24       0.27        0.00     0.00   0.043
  RD07_2_rdsq_out_no         6.06       0.00       0.00       0.00       5.81       0.00       5.81        0.03     0.02   0.959
  RD07_2_rdsq_out_with_PP       6.06      85.51       0.00       0.00      85.54       0.00      85.54        0.03     0.02   0.934
  RD07_2_rdsq_out_with_VS       6.06     124.30       0.00      10.14       0.00     124.28     124.44        0.03     0.02   0.955
  RD07_3_rdsq_out_no         6.06       0.00       0.00       0.00       5.81       0.00       5.81        0.03     0.02   0.958
  RD07_3_rdsq_out_with_PP       6.06      85.56       0.00       0.47       0.00       0.00       0.33        0.00     0.00   0.004
  RD07_3_rdsq_out_with_VS       6.06       0.22       0.00       7.41       0.00       0.21       0.25        0.00     0.00   0.039
  RD07_4_rdsq_out_no         6.06       0.00       0.00       0.00       5.82       0.00       5.82        0.03     0.02   0.960
  RD07_4_rdsq_out_with_PP       6.06      85.65       0.00       0.48       0.00       0.00       0.36        0.00     0.00   0.004
  RD07_4_rdsq_out_with_VS       6.06       0.26       0.00       6.26       0.00       0.00       0.00        0.00     0.00   0.000
  RD07_5_rdsq_out_no         6.06       0.00       0.00       0.00       5.84       0.00       5.84        0.02     0.01   0.963
  RD07_5_rdsq_out_with_PP       6.06      85.97       0.00       0.00      86.00       0.00      86.00        0.02     0.01   0.935
  RD07_5_rdsq_out_with_VS       6.06     125.56       0.00      10.26       0.00       0.00      86.43        0.01     0.00   0.657
  RD07_6_rdsq_out_no         6.06       0.00       0.00       0.00       5.82       0.00       5.82        0.02     0.01   0.961
  RD07_6_rdsq_out_with_PP       6.06      85.58       0.00       0.00      85.61       0.00      85.61        0.02     0.01   0.934
  RD07_6_rdsq_out_with_VS       6.06     125.08       0.00      10.27       0.00       0.00      83.49        0.01     0.00   0.637
  RD07_7_rdsq_out_no         6.06       0.00       0.00       0.00       5.81       0.00       5.81        0.02     0.01   0.959
  RD07_7_rdsq_out_with_PP       6.06      85.66       0.00       0.47       0.00       0.00       0.35        0.00     0.00   0.004
  RD07_7_rdsq_out_with_VS       6.06       0.25       0.00       7.42       0.00       0.24       0.30        0.00     0.00   0.047
  RD07_8_rdsq_out_no         6.06       0.00       0.00       0.00       5.81       0.00       5.81        0.03     0.02   0.958
  RD07_8_rdsq_out_with_PP       6.06      85.34       0.00       0.00      85.36       0.00      85.36        0.03     0.02   0.934
  RD07_8_rdsq_out_with_VS       6.06     124.60       0.00      10.27       0.00       0.00      75.70        0.02     0.01   0.579
  RD07_9_rdsq_out_no         6.06       0.00       0.00       0.00       5.82       0.00       5.82        0.01     0.01   0.961
  RD07_9_rdsq_out_with_PP       6.06      85.79       0.00       0.48       0.00       0.00       0.37        0.00     0.00   0.004
  RD07_9_rdsq_out_with_VS       6.06       0.28       0.00       6.28       0.00       0.00       0.01        0.00     0.00   0.001
  RD08_1_rdsq_out_no         6.06       0.00       0.00       0.00       5.81       0.00       5.81        0.03     0.02   0.958
  RD08_1_rdsq_out_with_PP       6.06      85.51       0.00       0.47       0.00       0.00       0.32        0.00     0.00   0.003
  RD08_1_rdsq_out_with_VS       6.06       0.21       0.00       7.41       0.00       0.19       0.23        0.00     0.00   0.036
  RD08_10_rdsq_out_no        6.06       0.00       0.00       0.00       5.83       0.00       5.83        0.01     0.01   0.962
  RD08_10_rdsq_out_with_PP       6.06      85.68       0.00       0.00      85.73       0.00      85.73        0.01     0.01   0.935
  RD08_10_rdsq_out_with_VS       6.06     125.12       0.00      10.24       0.00       0.00      97.36        0.01     0.00   0.742
  RD08_11_rdsq_out_no        6.06       0.00       0.00       0.00       5.84       0.00       5.84        0.01     0.00   0.963
  RD08_11_rdsq_out_with_PP       6.06      85.43       0.00       0.00      85.51       0.00      85.51        0.01     0.00   0.935
  RD08_11_rdsq_out_with_VS       6.06     126.15       0.00      10.23       0.00       0.00     105.40        0.01     0.00   0.797
  RD08_12_rdsq_out_no        6.06       0.00       0.00       0.00       5.85       0.00       5.85        0.01     0.00   0.965
  RD08_12_rdsq_out_with_PP       6.06      86.22       0.00       0.48       0.00       0.00       0.42        0.00     0.00   0.005
  RD08_12_rdsq_out_with_VS       6.06       0.33       0.00       6.32       0.00       0.00       0.01        0.00     0.00   0.002
  RD08_13_rdsq_out_no        6.06       0.00       0.00       0.00       5.84       0.00       5.84        0.01     0.00   0.963
  RD08_13_rdsq_out_with_PP       6.06      86.33       0.00       0.48       0.00       0.00       0.42        0.00     0.00   0.005
  RD08_13_rdsq_out_with_VS       6.06       0.33       0.00       7.42       0.00       0.30       0.42        0.00     0.00   0.065
  RD08_14_rdsq_out_no        6.06       0.00       0.00       0.00       5.84       0.00       5.84        0.01     0.01   0.964
  RD08_14_rdsq_out_with_PP       6.06      86.40       0.00       0.48       0.00       0.00       0.43        0.00     0.00   0.005
  RD08_14_rdsq_out_with_VS       6.06       0.34       0.00       7.42       0.00       0.31       0.42        0.00     0.00   0.065
  RD08_15_rdsq_out_no        6.06       0.00       0.00       0.00       5.86       0.00       5.86        0.01     0.00   0.966
  RD08_15_rdsq_out_with_PP       6.06      86.63       0.00       0.48       0.00       0.00       0.45        0.00     0.00   0.005
  RD08_15_rdsq_out_with_VS       6.06       0.37       0.00       7.42       0.00       0.33       0.45        0.00     0.00   0.070
  RD08_16_rdsq_out_no        6.06       0.00       0.00       0.00       5.85       0.00       5.85        0.01     0.01   0.965
  RD08_16_rdsq_out_with_PP       6.06      86.33       0.00       0.48       0.00       0.00       0.42        0.00     0.00   0.005
  RD08_16_rdsq_out_with_VS       6.06       0.34       0.00       6.33       0.00       0.00       0.01        0.00     0.00   0.001
  RD08_2_rdsq_out_no         6.06       0.00       0.00       0.00       5.79       0.00       5.79        0.03     0.02   0.956
  RD08_2_rdsq_out_with_PP       6.06      85.22       0.00       0.00      85.25       0.00      85.25        0.03     0.02   0.934
  RD08_2_rdsq_out_with_VS       6.06     123.85       0.00      10.14       0.00     123.83     123.99        0.03     0.02   0.954
  RD08_3_rdsq_out_no         6.06       0.00       0.00       0.00       5.75       0.00       5.75        0.10     0.05   0.949
  RD08_3_rdsq_out_with_PP       6.06      84.63       0.00       0.46       0.00       0.00       0.25        0.00     0.00   0.003
  RD08_3_rdsq_out_with_VS       6.06       0.14       0.00       6.53       0.00       0.14       0.15        0.00     0.00   0.024
  RD08_4_rdsq_out_no         6.06       0.00       0.00       0.00       5.83       0.00       5.83        0.02     0.01   0.961
  RD08_4_rdsq_out_with_PP       6.06      85.88       0.00       0.48       0.00       0.00       0.38        0.00     0.00   0.004
  RD08_4_rdsq_out_with_VS       6.06       0.29       0.00       6.29       0.00       0.00       0.01        0.00     0.00   0.001
  RD08_5_rdsq_out_no         6.06       0.00       0.00       0.00       5.83       0.00       5.83        0.02     0.01   0.962
  RD08_5_rdsq_out_with_PP       6.06      85.65       0.00       0.00      85.70       0.00      85.70        0.02     0.01   0.934
  RD08_5_rdsq_out_with_VS       6.06     125.41       0.00      10.25       0.00       0.00      91.80        0.01     0.00   0.698
  RD08_6_rdsq_out_no         6.06       0.00       0.00       0.00       5.82       0.00       5.82        0.03     0.01   0.960
  RD08_6_rdsq_out_with_PP       6.06      85.70       0.00       0.48       0.00       0.00       0.36        0.00     0.00   0.004
  RD08_6_rdsq_out_with_VS       6.06       0.27       0.00       6.27       0.00       0.00       0.00        0.00     0.00   0.001
  RD08_7_rdsq_out_no         6.06       0.00       0.00       0.00       5.84       0.00       5.84        0.02     0.01   0.964
  RD08_7_rdsq_out_with_PP       6.06      86.23       0.00       0.48       0.00       0.00       0.42        0.00     0.00   0.004
  RD08_7_rdsq_out_with_VS       6.06       0.33       0.00       7.42       0.00       0.31       0.38        0.00     0.00   0.060
  RD08_8_rdsq_out_no         6.06       0.00       0.00       0.00       5.84       0.00       5.84        0.02     0.01   0.963
  RD08_8_rdsq_out_with_PP       6.06      85.71       0.00       0.00      85.76       0.00      85.76        0.02     0.01   0.934
  RD08_8_rdsq_out_with_VS       6.06     124.78       0.00      10.14       0.00     124.73     125.03        0.02     0.01   0.956
  RD08_9_rdsq_out_no         6.06       0.00       0.00       0.00       5.83       0.00       5.83        0.01     0.01   0.962
  RD08_9_rdsq_out_with_PP       6.06      85.71       0.00       0.00      85.77       0.00      85.77        0.01     0.01   0.935
  RD08_9_rdsq_out_with_VS       6.06     125.54       0.00      10.24       0.00       0.00      99.07        0.01     0.00   0.753
  RD09_1_rdsq_out_no         6.06       0.00       0.00       0.00       5.84       0.00       5.84        0.02     0.01   0.963
  RD09_1_rdsq_out_with_PP       6.06      85.93       0.00       0.48       0.00       0.00       0.39        0.00     0.00   0.004
  RD09_1_rdsq_out_with_VS       6.06       0.30       0.00       6.30       0.00       0.00       0.01        0.00     0.00   0.001
  RD09_10_rdsq_out_no        6.06       0.00       0.00       0.00       5.84       0.00       5.84        0.01     0.01   0.963
  RD09_10_rdsq_out_with_PP       6.06      86.16       0.00       0.48       0.00       0.00       0.41        0.00     0.00   0.004
  RD09_10_rdsq_out_with_VS       6.06       0.32       0.00       7.42       0.00       0.29       0.39        0.00     0.00   0.061
  RD09_11_rdsq_out_no        6.06       0.00       0.00       0.00       5.83       0.00       5.83        0.02     0.01   0.961
  RD09_11_rdsq_out_with_PP       6.06      85.82       0.00       0.48       0.00       0.00       0.37        0.00     0.00   0.004
  RD09_11_rdsq_out_with_VS       6.06       0.28       0.00       7.42       0.00       0.27       0.32        0.00     0.00   0.051
  RD09_12_rdsq_out_no        6.06       0.00       0.00       0.00       5.83       0.00       5.83        0.02     0.01   0.962
  RD09_12_rdsq_out_with_PP       6.06      85.88       0.00       0.48       0.00       0.00       0.38        0.00     0.00   0.004
  RD09_12_rdsq_out_with_VS       6.06       0.29       0.00       7.42       0.00       0.28       0.33        0.00     0.00   0.053
  RD09_2_rdsq_out_no         6.06       0.00       0.00       0.00       5.83       0.00       5.83        0.02     0.01   0.962
  RD09_2_rdsq_out_with_PP       6.06      85.79       0.00       0.48       0.00       0.00       0.37        0.00     0.00   0.004
  RD09_2_rdsq_out_with_VS       6.06       0.28       0.00       7.42       0.00       0.27       0.33        0.00     0.00   0.052
  RD09_3_rdsq_out_no         6.06       0.00       0.00       0.00       5.85       0.00       5.85        0.02     0.01   0.964
  RD09_3_rdsq_out_with_PP       6.06      86.22       0.00       0.48       0.00       0.00       0.41        0.00     0.00   0.004
  RD09_3_rdsq_out_with_VS       6.06       0.33       0.00       6.32       0.00       0.00       0.00        0.00     0.00   0.001
  RD09_4_rdsq_out_no         6.06       0.00       0.00       0.00       5.84       0.00       5.84        0.02     0.01   0.963
  RD09_4_rdsq_out_with_PP       6.06      85.85       0.00       0.00      85.88       0.00      85.88        0.02     0.01   0.934
  RD09_4_rdsq_out_with_VS       6.06     124.79       0.00      10.14       0.00     124.75     124.96        0.02     0.01   0.955
  RD09_5_rdsq_out_no         6.06       0.00       0.00       0.00       5.80       0.00       5.80        0.04     0.02   0.957
  RD09_5_rdsq_out_with_PP       6.06      85.35       0.00       0.00      85.38       0.00      85.38        0.04     0.02   0.934
  RD09_5_rdsq_out_with_VS       6.06     124.21       0.00      10.14       0.00     124.20     124.32        0.04     0.02   0.954
  RD09_6_rdsq_out_no         6.06       0.00       0.00       0.00       5.81       0.00       5.81        0.04     0.02   0.958
  RD09_6_rdsq_out_with_PP       6.06      85.52       0.00       0.47       0.00       0.00       0.32        0.00     0.00   0.003
  RD09_6_rdsq_out_with_VS       6.06       0.21       0.00       7.41       0.00       0.20       0.23        0.00     0.00   0.036
  RD09_7_rdsq_out_no         6.06       0.00       0.00       0.00       5.85       0.00       5.85        0.01     0.01   0.965
  RD09_7_rdsq_out_with_PP       6.06      85.86       0.00       0.00      85.91       0.00      85.91        0.01     0.01   0.935
  RD09_7_rdsq_out_with_VS       6.06     125.98       0.00      10.25       0.00       0.00      95.46        0.01     0.00   0.723
  RD09_8_rdsq_out_no         6.06       0.00       0.00       0.00       5.83       0.00       5.83        0.01     0.01   0.963
  RD09_8_rdsq_out_with_PP       6.06      86.16       0.00       0.48       0.00       0.00       0.41        0.00     0.00   0.004
  RD09_8_rdsq_out_with_VS       6.06       0.32       0.00       6.31       0.00       0.00       0.01        0.00     0.00   0.001
  RD09_9_rdsq_out_no         6.06       0.00       0.00       0.00       5.85       0.00       5.85        0.01     0.01   0.965
  RD09_9_rdsq_out_with_PP       6.06      85.90       0.00       0.00      85.95       0.00      85.95        0.01     0.01   0.935
  RD09_9_rdsq_out_with_VS       6.06     124.90       0.00      10.15       0.00     124.84     125.22        0.01     0.01   0.956
  S01_10_green_no            6.06       0.00       0.00       6.06       0.00       0.00       0.00        0.00     0.00   0.000
  S01_10_green_with_BR       6.06       0.01       0.00       0.00       0.00       0.00       0.00        0.00     0.00   0.000
  S01_10_green_with_VS       6.06       0.00       0.00       6.05       0.00       0.00       0.00        0.00     0.00   0.000
  S01_10_roof_no             6.06       0.00       0.00       0.00       5.28       0.00       5.28        0.05     0.02   0.871
  S01_10_roof_with_GR        6.06      72.66       0.00       0.00       0.00       0.00       0.00        0.00     0.00   0.000
  S01_10_rdsq_in_no_PP       6.06       0.00       0.00       0.00       5.61       0.00       5.61        0.03     0.02   0.925
  S01_10_rdsq_in_with_PP       6.06       8.69       0.00       0.00       0.00       0.00       0.00        0.00     0.00   0.000
  S01_10_rdsq_out_no_PP       6.06       0.00       0.00       0.00       5.84       0.00       5.84        0.02     0.01   0.963
  S01_10_rdsq_out_with_PP       6.06       9.07       0.00       0.00       0.00       0.00       0.00        0.00     0.00   0.000
  S01_12_green_no            6.06       0.00       0.00       6.06       0.00       0.00       0.00        0.00     0.00   0.000
  S01_12_green_with_BR       6.06       0.00       0.00       0.00       0.00       0.00       0.00        0.00     0.00   0.000
  S01_12_green_with_VS       6.06       0.00       0.00       6.06       0.00       0.00       0.00        0.00     0.00   0.000
  S01_12_roof_no             6.06       0.00       0.00       0.00       5.14       0.00       5.14        0.09     0.03   0.847
  S01_12_roof_with_GR        6.06      70.49       0.00       0.00       0.00       0.00       0.00        0.00     0.00   0.000
  S01_12_rdsq_in_no_PP       6.06       0.00       0.00       0.00       5.42       0.00       5.42        0.09     0.04   0.894
  S01_12_rdsq_in_with_PP       6.06       8.38       0.00       0.00       0.00       0.00       0.00        0.00     0.00   0.000
  S01_13_green_no            6.06       0.00       0.00       6.06       0.00       0.00       0.00        0.00     0.00   0.000
  S01_13_green_with_BR       6.06       0.00       0.00       0.00       0.00       0.00       0.00        0.00     0.00   0.000
  S01_13_green_with_VS       6.06       0.00       0.00       6.06       0.00       0.00       0.00        0.00     0.00   0.000
  S01_13_roof_no             6.06       0.00       0.00       0.00       5.12       0.00       5.12        0.09     0.04   0.845
  S01_13_roof_with_GR        6.06      70.30       0.00       0.00       0.00       0.00       0.00        0.00     0.00   0.000
  S01_13_rdsq_in_no_PP       6.06       0.00       0.00       0.00       5.33       0.00       5.33        0.07     0.03   0.879
  S01_13_rdsq_in_with_PP       6.06       8.23       0.00       0.00       0.00       0.00       0.00        0.00     0.00   0.000
  S01_13_rdsq_out_no_PP       6.06       0.00       0.00       0.00       5.80       0.00       5.80        0.02     0.01   0.958
  S01_13_rdsq_out_with_PP       6.06       9.02       0.00       0.00       0.00       0.00       0.00        0.00     0.00   0.000
  S01_14_green_no            6.06       0.00       0.00       6.06       0.00       0.00       0.00        0.00     0.00   0.000
  S01_14_green_with_BR       6.06       0.00       0.00       0.00       0.00       0.00       0.00        0.00     0.00   0.000
  S01_14_green_with_VS       6.06       0.00       0.00       6.06       0.00       0.00       0.00        0.00     0.00   0.000
  S01_14_roof_no             6.06       0.00       0.00       0.00       5.23       0.00       5.23        0.06     0.02   0.863
  S01_14_roof_with_GR        6.06      71.90       0.00       0.00       0.00       0.00       0.00        0.00     0.00   0.000
  S01_14_rdsq_in_no_PP       6.06       0.00       0.00       0.00       5.54       0.00       5.54        0.05     0.02   0.914
  S01_14_rdsq_in_with_PP       6.06       8.58       0.00       0.00       0.00       0.00       0.00        0.00     0.00   0.000
  S01_15_green_no            6.06       0.00       0.00       6.06       0.00       0.00       0.00        0.00     0.00   0.000
  S01_15_green_with_BR       6.06     107.31       0.00       0.01       0.00       0.00       0.00        0.00     0.00   0.000
  S01_15_green_with_VS       6.06       0.00       0.00       6.06       0.00       0.00       0.00        0.00     0.00   0.000
  S01_15_roof_no             6.06       0.00       0.00       0.00       5.31       0.00       5.31        0.04     0.02   0.875
  S01_15_roof_with_GR        6.06      72.93       0.00       0.00      72.94       0.00      72.94        0.04     0.02   0.923
  S01_15_rdsq_in_no_PP       6.06       0.00       0.00       0.00       5.64       0.00       5.64        0.02     0.01   0.931
  S01_15_rdsq_in_with_PP       6.06       8.75       0.00       0.00       0.00       0.00       0.00        0.00     0.00   0.000
  S01_15_rdsq_out_no_PP       6.06       0.00       0.00       0.00       5.84       0.00       5.84        0.01     0.01   0.964
  S01_15_rdsq_out_with_PP       6.06       9.08       0.00       0.00       0.00       0.00       0.00        0.00     0.00   0.000
  S01_3_green_no             6.06       0.00       0.00       6.06       0.00       0.00       0.00        0.00     0.00   0.000
  S01_3_green_with_BR        6.06       0.00       0.00       0.00       0.00       0.00       0.00        0.00     0.00   0.000
  S01_3_green_with_VS        6.06       0.00       0.00       6.06       0.00       0.00       0.00        0.00     0.00   0.000
  S01_3_rdsq_in              6.06       0.00       0.00       0.00       5.44       0.00       5.44        0.10     0.04   0.898
  S01_4_green_no             6.06       0.00       0.00       6.06       0.00       0.00       0.00        0.00     0.00   0.000
  S01_4_green_with_BR        6.06       0.00       0.00       0.00       0.00       0.00       0.00        0.00     0.00   0.000
  S01_4_green_with_VS        6.06       0.00       0.00       6.06       0.00       0.00       0.00        0.00     0.00   0.000
  S01_4_roof_no              6.06       0.00       0.00       0.00       5.13       0.00       5.13        0.09     0.04   0.847
  S01_4_roof_with_GR         6.06      70.43       0.00       0.00       0.00       0.00       0.00        0.00     0.00   0.000
  S01_4_rdsq_in_no_PP        6.06       0.00       0.00       0.00       5.46       0.00       5.46        0.08     0.04   0.901
  S01_4_rdsq_in_with_PP       6.06       8.44       0.00       0.00       0.00       0.00       0.00        0.00     0.00   0.000
  S01_5_green_no             6.06       0.00       0.00       6.06       0.00       0.00       0.00        0.00     0.00   0.000
  S01_5_green_with_BR        6.06      87.78       0.00       0.01       0.00       0.00       0.00        0.00     0.00   0.000
  S01_5_green_with_VS        6.06       0.00       0.00       6.06       0.00       0.00       0.00        0.00     0.00   0.000
  S01_5_roof_no              6.06       0.00       0.00       0.00       5.41       0.00       5.41        0.02     0.01   0.893
  S01_5_roof_with_GR         6.06      74.50       0.00       0.00      74.52       0.00      74.52        0.02     0.01   0.925
  S01_5_rdsq_in_no_PP        6.06       0.00       0.00       0.00       5.64       0.00       5.64        0.02     0.01   0.930
  S01_5_rdsq_in_with_PP       6.06       8.74       0.00       0.00       0.00       0.00       0.00        0.00     0.00   0.000
  S01_6_green_no             6.06       0.00       0.00       6.06       0.00       0.00       0.00        0.00     0.00   0.000
  S01_6_green_with_BR        6.06       8.84       0.00       0.02       0.00       8.84       8.84        0.01     0.00   0.593
  S01_6_green_with_VS        6.06       2.48       0.00       8.54       0.00       0.00       0.00        0.00     0.00   0.000
  S01_6_roof_no              6.06       0.00       0.00       0.00       5.57       0.00       5.57        0.01     0.00   0.918
  S01_6_roof_with_GR         6.06      76.67       0.00       0.00      76.75       0.00      76.75        0.01     0.00   0.928
  S01_6_rdsq_in_no_PP        6.06       0.00       0.00       0.00       5.64       0.00       5.64        0.03     0.01   0.930
  S01_6_rdsq_in_with_PP       6.06       8.74       0.00       0.00       0.00       0.00       0.00        0.00     0.00   0.000
  S01_6_rdsq_out_no_PP       6.06       0.00       0.00       0.00       5.87       0.00       5.87        0.00     0.00   0.968
  S01_6_rdsq_out_with_PP       6.06       9.12       0.00       0.00       9.14       0.00       9.14        0.00     0.00   0.602
  S01_7_green_no             6.06       2.58       0.00       8.64       0.00       0.00       0.00        0.00     0.00   0.000
  S01_7_green_with_BR        6.06      48.25       0.00       0.07       0.00      48.22      48.22        0.01     0.00   0.888
  S01_7_green_with_VS        6.06       9.43       0.00      11.32       0.00       9.42       9.43        0.01     0.00   0.609
  S01_7_roof_no              6.06       0.00       0.00       0.00       5.53       0.00       5.53        0.01     0.00   0.912
  S01_7_roof_with_GR         6.06      75.98       0.00       0.00      76.04       0.00      76.04        0.01     0.00   0.927
  S01_7_rdsq_in_no_PP        6.06       0.00       0.00       0.00       5.72       0.00       5.72        0.01     0.01   0.944
  S01_7_rdsq_in_with_PP       6.06       8.88       0.00       0.00       0.00       0.00       0.00        0.00     0.00   0.000
  S01_8_green_no             6.06       0.00       0.00       6.06       0.00       0.00       0.00        0.00     0.00   0.000
  S01_8_green_with_BR        6.06      63.98       0.00       0.01       0.00       0.00       0.00        0.00     0.00   0.000
  S01_8_green_with_VS        6.06       0.00       0.00       6.00       0.00       0.00       0.00        0.00     0.00   0.000
  S01_8_roof_no              6.06       0.00       0.00       0.00       5.49       0.00       5.49        0.01     0.01   0.906
  S01_8_roof_with_GR         6.06      75.54       0.00       0.00      75.58       0.00      75.58        0.01     0.01   0.926
  S01_8_rdsq_in_no_PP        6.06       0.00       0.00       0.00       5.70       0.00       5.70        0.02     0.01   0.940
  S01_8_rdsq_in_with_PP       6.06       8.84       0.00       0.00       0.00       0.00       0.00        0.00     0.00   0.000
  S01_9_green_no             6.06       0.48       0.00       6.54       0.00       0.00       0.00        0.00     0.00   0.000
  S01_9_green_with_BR        6.06      78.43       0.00       0.02       0.00      78.43      78.43        0.06     0.02   0.928
  S01_9_green_with_VS        6.06      15.25       0.00      11.20       0.00       0.00       2.04        0.01     0.00   0.096
  S01_9_roof_no              6.06       0.00       0.00       0.00       5.24       0.00       5.24        0.06     0.02   0.865
  S01_9_roof_with_GR         6.06      72.03       0.00       0.00      72.04       0.00      72.04        0.06     0.02   0.923
  S01_9_rdsq_in_no_PP        6.06       0.00       0.00       0.00       5.45       0.00       5.45        0.05     0.02   0.899
  S01_9_rdsq_in_with_PP       6.06       8.43       0.00       0.00       0.00       0.00       0.00        0.00     0.00   0.000
  S01_9_rdsq_out_no_PP       6.06       0.00       0.00       0.00       5.82       0.00       5.82        0.02     0.01   0.960
  S01_9_rdsq_out_with_PP       6.06       9.04       0.00       0.00       0.00       0.00       0.00        0.00     0.00   0.000
  S02_1_green_no             6.06       0.00       0.00       6.06       0.00       0.00       0.00        0.00     0.00   0.000
  S02_1_green_with_BR        6.06      13.50       0.00       0.00       0.00       0.00       0.00        0.00     0.00   0.000
  S02_1_green_with_VS        6.06       0.00       0.00       6.06       0.00       0.00       0.00        0.00     0.00   0.000
  S02_1_roof_no              6.06       0.00       0.00       0.00       5.48       0.00       5.48        0.01     0.01   0.904
  S02_1_roof_with_GR         6.06      75.46       0.00       0.00      75.49       0.00      75.49        0.01     0.01   0.926
  S02_1_rdsq_in_no_PP        6.06       0.00       0.00       0.00       5.60       0.00       5.60        0.06     0.03   0.924
[...]
  L154                         3.917         0.112         0.025         0.020
  L155                         0.000         0.000         0.000         0.000
  L156                         0.000         0.000         0.000         0.000
  L157                         3.379         0.097         0.021         0.018
  L158                         0.000         0.000         0.000         0.000
  L159                         0.000         0.000         0.000         0.000
  L160                         0.000         0.000         0.000         0.000
  L161                         0.000         0.000         0.000         0.000
  L162                        14.884         0.336         0.105         0.062
  L163                        13.349         0.296         0.095         0.055
  L164                         0.000         0.000         0.000         0.000
  L165                        16.368         0.354         0.118         0.065
  L166                         0.000         0.000         0.000         0.000
  L167                         0.000         0.000         0.000         0.000
  L168                         0.002         0.000         0.000         0.000
  L169                         8.496         0.232         0.053         0.042
  L170                        21.784         0.478         0.158         0.089
  L171                        12.333         0.347         0.076         0.062
  L172                         0.000         0.000         0.000         0.000
  L173                         0.000         0.000         0.000         0.000
  L174                        28.503         0.618         0.205         0.114
  L175                         7.337         0.215         0.046         0.038
  L176                         0.000         0.000         0.000         0.000
  L177                         0.001         0.000         0.000         0.000
  L178                         7.085         0.154         0.051         0.029
  L179                         0.000         0.000         0.000         0.000
  L180                         7.837         0.227         0.049         0.040
  L181                        10.893         0.307         0.068         0.055
  L182                        16.707         0.373         0.119         0.069
  L184                         0.000         0.000         0.000         0.000
  L185                        10.140         0.227         0.072         0.042
  L186                         3.611         0.098         0.022         0.018
  L194                         0.000         0.000         0.000         0.000
  L198                         0.000         0.000         0.000         0.000
  L199                         0.000         0.000         0.000         0.000
  L200                        31.593         0.737         0.249         0.155
  L201                         3.683         0.099         0.023         0.018
  L202                         5.114         0.145         0.032         0.026
  L203                         3.047         0.080         0.019         0.015
  L204                         2.147         0.054         0.013         0.010
  L205                         2.351         0.060         0.015         0.011
  L206                         2.458         0.062         0.015         0.011
  L207                         0.000         0.000         0.000         0.000
  L208                         0.000         0.000         0.000         0.000
  L209                         0.000         0.000         0.000         0.000
  L210                         0.000         0.000         0.000         0.000
  L211                         0.000         0.000         0.000         0.000
  L217                        11.449         0.247         0.083         0.046
  L218                        15.238         0.342         0.108         0.063
  L219                         0.000         0.000         0.000         0.000
  L220                         0.000         0.000         0.000         0.000
  L222                         0.000         0.000         0.000         0.000
  L223                         3.940         0.108         0.025         0.020
  L224                         5.652         0.128         0.040         0.023
  L225                         0.289         0.006         0.002         0.001
  L226                         8.625         0.201         0.059         0.037
  L228                         0.000         0.000         0.000         0.000
  L229                         0.000         0.000         0.000         0.000
  L230                         2.639         0.063         0.016         0.012
  L231                         0.000         0.000         0.000         0.000
  L234                         4.146         0.116         0.026         0.021
  L235                         4.024         0.111         0.025         0.020
  L252                         0.000         0.000         0.000         0.000
  L254                        12.459         0.275         0.089         0.051
  L255                         0.000         0.000         0.000         0.000
  L256                         0.000         0.000         0.000         0.000
  L257                        11.802         0.250         0.086         0.047
  L258                         7.304         0.150         0.055         0.028
  L259                         0.000         0.000         0.000         0.000
  L260                         0.000         0.000         0.000         0.000
  L261                         0.001         0.000         0.000         0.000
  L262                         0.000         0.000         0.000         0.000
  L263                        17.736         0.381         0.129         0.071
  L267                         1.929         0.038         0.016         0.007
  L268                         0.000         0.000         0.000         0.000
  L269                         0.000         0.000         0.000         0.000
  L270                         0.000         0.000         0.000         0.000
  L271                         0.000         0.000         0.000         0.000
  L272                         0.000         0.000         0.000         0.000
  L273                         0.001         0.000         0.000         0.000
  L274                         5.876         0.161         0.036         0.029
  L275                         9.626         0.262         0.060         0.048
  L277                        20.698         0.439         0.151         0.082
  L278                        48.705         1.109         0.341         0.205
  L279                        41.612         0.988         0.286         0.182
  L280                        31.658         0.710         0.224         0.131
  L281                        24.604         0.580         0.171         0.106
  L282                        29.329         0.651         0.209         0.120
  L283                        27.761         0.638         0.194         0.117
  L284                         9.016         0.243         0.056         0.044
  L285                         8.171         0.184         0.058         0.034
  L286                        13.800         0.323         0.096         0.059
  L287                        13.850         0.324         0.096         0.059
  L288                        13.734         0.321         0.095         0.059
  L289                         0.001         0.000         0.000         0.000
  L290                         0.000         0.000         0.000         0.000
  L291                         5.747         0.160         0.036         0.029
  L292                         0.000         0.000         0.000         0.000
  L293                         0.000         0.000         0.000         0.000
  L297                         0.000         0.000         0.000         0.000
  L298                        16.540         0.409         0.110         0.075
  L299                         0.000         0.000         0.000         0.000
  L301                         0.000         0.000         0.000         0.000
  L303                         0.000         0.000         0.000         0.000
  L304                         0.000         0.000         0.000         0.000
  L305                        17.116         0.422         0.117         0.077
  L307                         0.000         0.000         0.000         0.000
  L308                         6.359         0.132         0.047         0.025
  L309                         4.208         0.197         0.054         0.022
  L310                         5.542         0.139         0.057         0.040
  L311                        12.692         0.266         0.094         0.050
  L312                         8.015         0.173         0.059         0.032
  L313                         0.141         0.005         0.001         0.001
  L314                         0.000         0.000         0.000         0.000
  L315                         6.161         0.140         0.044         0.026
  L316                         2.808         0.087         0.033         0.028
  L317                         3.981         0.103         0.025         0.019
  L318                         6.776         0.153         0.047         0.028
  L319                         6.612         0.155         0.045         0.029
  L320                         0.000         0.000         0.000         0.000
  L321                         0.000         0.000         0.000         0.000
  L322                         5.994         0.165         0.037         0.030
  L323                        14.055         0.332         0.095         0.061
  L324                         6.068         0.170         0.038         0.031
  L325                         0.000         0.000         0.000         0.000
  L326                         3.418         0.093         0.021         0.017
  L327                         1.028         0.029         0.007         0.005
  L328                        23.983         0.552         0.168         0.101
  L329                        33.274         0.754         0.233         0.140
  L330                         7.058         0.204         0.044         0.036
  L331                        20.844         0.469         0.148         0.086
  L332                         7.642         0.220         0.047         0.039
  L333                        21.573         0.485         0.154         0.089
  L334                        10.826         0.242         0.077         0.045
  L335                        11.663         0.246         0.085         0.046
  L336                         1.202         0.069         0.036         0.034
  L337                        17.010         0.418         0.147         0.098
  L338                        17.826         0.420         0.152         0.098
  L340                        24.294         0.533         0.173         0.098
  L341                        23.757         0.535         0.169         0.098
  L342                         7.243         0.208         0.045         0.037
  L343                         7.064         0.197         0.044         0.035
  L344                        15.682         0.348         0.112         0.064
  L345                        18.978         0.464         0.131         0.085
  L346                        12.488         0.279         0.089         0.051
  L347                         4.358         0.117         0.027         0.021
  L348                         8.685         0.237         0.054         0.043
  L349                         5.378         0.145         0.033         0.026
  L350                         1.662         0.035         0.012         0.007
  L351                         0.000         0.000         0.000         0.000
  L352                         3.321         0.089         0.021         0.016
  L353                         4.022         0.111         0.025         0.020
  L354                         0.000         0.000         0.000         0.000
  L355                        14.180         0.311         0.102         0.058
  L356                         4.467         0.112         0.028         0.021
  L357                         8.564         0.194         0.061         0.035
  L358                         0.001         0.000         0.000         0.000
  L359                         4.764         0.131         0.030         0.024
  L361                         3.815         0.104         0.024         0.019
  L362                         4.542         0.125         0.028         0.023
  L363                        17.531         0.395         0.125         0.072
  L364                        21.406         0.486         0.151         0.089
  L365                         8.256         0.244         0.051         0.043
  L366                         5.001         0.142         0.031         0.025
  L367                        22.085         0.498         0.157         0.091
  L368                         0.000         0.000         0.000         0.000
  L369                         0.043         0.001         0.000         0.000
  L370                         0.000         0.000         0.000         0.000
  L371                         0.000         0.000         0.000         0.000
  L372                         1.127         0.065         0.034         0.033
  L373                         0.000         0.000         0.000         0.000
  L374                         0.000         0.000         0.000         0.000
  L378                         0.000         0.000         0.000         0.000
  L379                         4.357         0.121         0.027         0.022
  L380                         0.000         0.000         0.000         0.000
  L381                         0.000         0.000         0.000         0.000
  L382                         0.000         0.000         0.000         0.000
  L383                         0.000         0.000         0.000         0.000
  L384                         0.000         0.000         0.000         0.000
  L385                        12.746         0.270         0.094         0.050
  L386                         6.226         0.138         0.043         0.026
  L387                        10.545         0.213         0.079         0.040
  L388                         0.000         0.000         0.000         0.000
  L389                         5.311         0.137         0.033         0.025
  L390                         7.445         0.219         0.046         0.039
  L391                         0.000         0.000         0.000         0.000
  L392                        12.335         0.350         0.077         0.063
  L393                         0.000         0.000         0.000         0.000
  L394                        14.229         0.337         0.095         0.063
  L395                        28.237         0.648         0.196         0.119
  L396                        24.595         0.542         0.177         0.100
  L397                         6.610         0.195         0.041         0.035
  L398                         0.000         0.000         0.000         0.000
  L399                         0.000         0.000         0.000         0.000
  L400                        30.723         0.743         0.210         0.136
  L401                         3.586         0.109         0.025         0.018
  L402                         8.899         0.188         0.066         0.035
  L403                        18.141         0.400         0.130         0.074
  L405                         0.000         0.000         0.000         0.000
  L406                         0.000         0.000         0.000         0.000
  L407                        13.304         0.295         0.096         0.055
  L408                        13.137         0.367         0.082         0.066
  L409                         5.752         0.149         0.036         0.027
  L410                         0.000         0.000         0.000         0.000
  L411                         0.000         0.000         0.000         0.000
  L412                        24.651         0.547         0.175         0.101
  L413                        21.641         0.488         0.153         0.090
  L414                        26.347         0.564         0.191         0.104
  L415                         0.000         0.000         0.000         0.000
  L416                         5.588         0.147         0.045         0.037
  L417                         4.178         0.092         0.026         0.018
  L418                         4.276         0.118         0.027         0.021
  L419                        22.217         0.491         0.159         0.091
  L420                         6.327         0.179         0.039         0.032
  L421                         0.000         0.000         0.000         0.000
  L422                         9.176         0.196         0.068         0.037
  L423                         0.000         0.000         0.000         0.000
  L424                         1.121         0.052         0.014         0.006
  L425                         0.000         0.000         0.000         0.000
  L426                         0.480         0.035         0.008         0.003
  L427                         0.000         0.000         0.000         0.000
  L428                         0.000         0.000         0.000         0.000
  L429                         4.654         0.106         0.033         0.019
  L430                         0.001         0.000         0.000         0.000
  L431                         0.000         0.000         0.000         0.000
  L432                         0.000         0.000         0.000         0.000
  L434                         3.191         0.084         0.020         0.015
  L435                         0.000         0.000         0.000         0.000
  L437                        22.030         0.475         0.160         0.088
  L439                         0.865         0.017         0.007         0.003
  L440                         0.000         0.000         0.000         0.000
  L441                         0.000         0.000         0.000         0.000
  L442                         0.000         0.000         0.000         0.000
  L443                         6.423         0.154         0.043         0.028
  L448                         4.405         0.122         0.027         0.022
  L449                         0.000         0.000         0.000         0.000
  L450                         0.000         0.000         0.000         0.000
  L451                         5.367         0.150         0.033         0.027
  L452                         0.001         0.000         0.000         0.000
  L453                         0.000         0.000         0.000         0.000
  L454                         0.000         0.000         0.000         0.000
  L457                         0.000         0.000         0.000         0.000
  L458                         0.000         0.000         0.000         0.000
  L464                        18.241         1.027         0.527         0.509
  L466                        67.491         1.959         0.804         0.616
  L462                        22.548         0.510         0.159         0.094
  L461                        25.893         0.535         0.197         0.100
  L463                        22.148         0.480         0.163         0.089
  L465                        41.195         0.948         0.341         0.207
  L459                         0.000         0.000         0.000         0.000
  L460                         0.000         0.000         0.000         0.000
  

  Analysis begun on:  Thu Dec 23 17:31:56 2021
  Analysis ended on:  Thu Dec 23 17:32:00 2021
  Total elapsed time: 00:00:04