
  EPA STORM WATER MANAGEMENT MODEL - VERSION 5.1 (Build 5.1.013)
  --------------------------------------------------------------

  骞虫睙鏂板煄 
  
  
  *********************
  Rainfall File Summary
  *********************
  Station    First        Last         Recording   Periods    Periods    Periods
  ID         Date         Date         Frequency  w/Precip    Missing    Malfunc.
  -------------------------------------------------------------------------------
  1          01/01/2018   01/01/2018       5 min        24          0          0

  
  *********************************************************
  NOTE: The summary statistics displayed in this report are
  based on results found at every computational time step,  
  not just on results from each reporting time step.
  *********************************************************
  
  ****************
  Analysis Options
  ****************
  Flow Units ............... CMS
  Process Models:
    Rainfall/Runoff ........ YES
    RDII ................... NO
    Snowmelt ............... NO
    Groundwater ............ NO
    Flow Routing ........... YES
    Ponding Allowed ........ YES
    Water Quality .......... YES
  Infiltration Method ...... HORTON
  Flow Routing Method ...... DYNWAVE
  Surcharge Method ......... EXTRAN
  Starting Date ............ 01/01/2018 00:00:00
  Ending Date .............. 01/01/2018 02:00:00
  Antecedent Dry Days ...... 14.0
  Report Time Step ......... 00:05:00
  Wet Time Step ............ 00:05:00
  Dry Time Step ............ 06:00:00
  Routing Time Step ........ 30.00 sec
  Variable Time Step ....... YES
  Maximum Trials ........... 10
  Number of Threads ........ 4
  Head Tolerance ........... 0.001500 m
  
  
  **************************        Volume         Depth
  Runoff Quantity Continuity     hectare-m            mm
  **************************     ---------       -------
  Initial LID Storage ......         2.375         4.752
  Total Precipitation ......         5.210        10.425
  Evaporation Loss .........         0.000         0.000
  Infiltration Loss ........         1.594         3.190
  Surface Runoff ...........         0.209         0.419
  Final Storage ............         5.651        11.307
  Continuity Error (%) .....         1.720
  
  
  **************************           COD            TN         NH4-N            TP
  Runoff Quality Continuity             kg            kg            kg            kg
  **************************    ----------    ----------    ----------    ----------
  Initial Buildup ..........     30322.891      2148.702       636.762       242.652
  Surface Buildup ..........         0.759         0.643         0.007         0.022
  Wet Deposition ...........         0.000         0.000         0.000         0.000
  Sweeping Removal .........         0.000         0.000         0.000         0.000
  Infiltration Loss ........        36.607         2.243         0.463         0.153
  BMP Removal ..............      4326.659       159.567        38.989        22.889
  Surface Runoff ...........       464.615        16.917         5.566         3.678
  Remaining Buildup ........     25399.475      1966.786       590.814       215.340
  Continuity Error (%) .....         0.318         0.178         0.147         0.253
  
  
  **************************        Volume        Volume
  Flow Routing Continuity        hectare-m      10^6 ltr
  **************************     ---------     ---------
  Dry Weather Inflow .......         0.000         0.000
  Wet Weather Inflow .......         0.205         2.047
  Groundwater Inflow .......         0.000         0.000
  RDII Inflow ..............         0.000         0.000
  External Inflow ..........         0.000         0.000
  External Outflow .........         0.167         1.671
  Flooding Loss ............         0.000         0.000
  Evaporation Loss .........         0.000         0.000
  Exfiltration Loss ........         0.000         0.000
  Initial Stored Volume ....         0.041         0.413
  Final Stored Volume ......         0.078         0.781
  Continuity Error (%) .....         0.316
  
  
  **************************           COD            TN         NH4-N            TP
  Quality Routing Continuity            kg            kg            kg            kg
  **************************    ----------    ----------    ----------    ----------
  Dry Weather Inflow .......         0.000         0.000         0.000         0.000
  Wet Weather Inflow .......       456.207        16.500         5.475         3.607
  Groundwater Inflow .......         0.000         0.000         0.000         0.000
  RDII Inflow ..............         0.000         0.000         0.000         0.000
  External Inflow ..........         0.000         0.000         0.000         0.000
  External Outflow .........       321.505        10.848         4.018         2.645
  Flooding Loss ............         0.000         0.000         0.000         0.000
  Exfiltration Loss ........         0.000         0.000         0.000         0.000
  Mass Reacted .............         0.000         0.000         0.000         0.000
  Initial Stored Mass ......         0.000         0.000         0.000         0.000
  Final Stored Mass ........       121.401         5.161         1.243         0.831
  Continuity Error (%) .....         2.915         2.975         3.918         3.622
  
  
  *************************
  Highest Continuity Errors
  *************************
  Node Y254 (100.00%)
  Node Y268 (100.00%)
  Node Y313 (100.00%)
  Node Y351 (100.00%)
  Node Y378 (100.00%)
  
  
  ***************************
  Time-Step Critical Elements
  ***************************
  Link L443 (79.54%)
  Link L466 (8.30%)
  Link L390 (3.92%)
  Link L350 (3.33%)
  Link L93 (1.24%)
  
  
  ********************************
  Highest Flow Instability Indexes
  ********************************
  Link L425 (6)
  Link L443 (6)
  Link L258 (5)
  Link L416 (5)
  Link L431 (5)
  
  
  *************************
  Routing Time Step Summary
  *************************
  Minimum Time Step           :     1.50 sec
  Average Time Step           :     4.71 sec
  Maximum Time Step           :    30.00 sec
  Percent in Steady State     :    -0.00
  Average Iterations per Step :     2.01
  Percent Not Converging      :     0.00
  
  
  ***************************
  Subcatchment Runoff Summary
  ***************************
  
  ------------------------------------------------------------------------------------------------------------------------------
                            Total      Total      Total      Total     Imperv       Perv      Total       Total     Peak  Runoff
                           Precip      Runon       Evap      Infil     Runoff     Runoff     Runoff      Runoff   Runoff   Coeff
  Subcatchment                 mm         mm         mm         mm         mm         mm         mm    10^6 ltr      CMS
  ------------------------------------------------------------------------------------------------------------------------------
  RD01_1_rdsq_out_no        10.43       0.00       0.00       0.00      10.23       0.00      10.23        0.01     0.01   0.981
  RD01_1_rdsq_out_with_PP      10.43     208.79       0.00       0.59       0.00       0.00      81.01        0.00     0.00   0.370
  RD01_1_rdsq_out_with_VS      10.43      14.45       0.00       9.98       0.00       0.00       2.65        0.00     0.00   0.106
  RD01_10_rdsq_out_no       10.43       0.00       0.00       0.00      10.19       0.00      10.19        0.03     0.02   0.977
  RD01_10_rdsq_out_with_PP      10.43     205.94       0.00       0.00     206.05       0.00     206.05        0.03     0.02   0.952
  RD01_10_rdsq_out_with_VS      10.43      37.39       0.00      10.17       0.00      37.38      37.75        0.03     0.02   0.789
  RD01_11_rdsq_out_no       10.43       0.00       0.00       0.00      10.20       0.00      10.20        0.02     0.01   0.979
  RD01_11_rdsq_out_with_PP      10.43     207.10       0.00       0.59       0.00       0.00      79.33        0.01     0.01   0.365
  RD01_11_rdsq_out_with_VS      10.43      14.21       0.00       9.94       0.00      14.21      14.22        0.01     0.01   0.577
  RD01_12_rdsq_out_no       10.43       0.00       0.00       0.00      10.17       0.00      10.17        0.04     0.02   0.976
  RD01_12_rdsq_out_with_PP      10.43     205.93       0.00       0.00     206.00       0.00     206.00        0.04     0.02   0.952
  RD01_12_rdsq_out_with_VS      10.43      37.32       0.00      10.14       0.00       0.00       5.01        0.01     0.00   0.105
  RD01_13_rdsq_out_no       10.43       0.00       0.00       0.00      10.19       0.00      10.19        0.04     0.02   0.977
  RD01_13_rdsq_out_with_PP      10.43     206.71       0.00       0.59       0.00       0.00      78.94        0.02     0.01   0.364
  RD01_13_rdsq_out_with_VS      10.43      14.15       0.00       9.98       0.00       0.00       0.77        0.00     0.00   0.031
  RD01_14_rdsq_out_no       10.43       0.00       0.00       0.00      10.21       0.00      10.21        0.03     0.01   0.979
  RD01_14_rdsq_out_with_PP      10.43     206.02       0.00       0.00     206.12       0.00     206.12        0.02     0.01   0.952
  RD01_14_rdsq_out_with_VS      10.43      37.47       0.00      10.15       0.00       0.00       7.85        0.01     0.00   0.164
  RD01_15_rdsq_out_no       10.43       0.00       0.00       0.00      10.21       0.00      10.21        0.02     0.01   0.980
  RD01_15_rdsq_out_with_PP      10.43     205.86       0.00       0.00     205.99       0.00     205.99        0.02     0.01   0.952
  RD01_15_rdsq_out_with_VS      10.43      37.47       0.00      10.17       0.00      37.47      38.04        0.02     0.01   0.794
  RD01_16_rdsq_out_no       10.43       0.00       0.00       0.00      10.22       0.00      10.22        0.02     0.01   0.980
  RD01_16_rdsq_out_with_PP      10.43     206.90       0.00       0.00     207.04       0.00     207.04        0.02     0.01   0.953
  RD01_16_rdsq_out_with_VS      10.43      37.50       0.00      10.17       0.00      37.49      38.05        0.02     0.01   0.794
  RD01_2_rdsq_out_no        10.43       0.00       0.00       0.00      10.22       0.00      10.22        0.01     0.01   0.981
  RD01_2_rdsq_out_with_PP      10.43     206.69       0.00       0.00     206.89       0.00     206.89        0.01     0.01   0.953
  RD01_2_rdsq_out_with_VS      10.43      37.49       0.00      10.17       0.00      37.48      38.31        0.01     0.01   0.800
  RD01_3_rdsq_out_no        10.43       0.00       0.00       0.00      10.18       0.00      10.18        0.06     0.03   0.977
  RD01_3_rdsq_out_with_PP      10.43     206.25       0.00       0.59       0.00       0.00      78.48        0.02     0.01   0.362
  RD01_3_rdsq_out_with_VS      10.43      14.08       0.00       9.97       0.00       0.00       0.56        0.00     0.00   0.023
  RD01_4_rdsq_out_no        10.43       0.00       0.00       0.00      10.17       0.00      10.17        0.07     0.04   0.976
  RD01_4_rdsq_out_with_PP      10.43     205.79       0.00       0.00     205.85       0.00     205.85        0.07     0.04   0.952
  RD01_4_rdsq_out_with_VS      10.43      37.31       0.00      10.15       0.00       0.00       3.32        0.01     0.00   0.070
  RD01_5_rdsq_out_no        10.43       0.00       0.00       0.00      10.21       0.00      10.21        0.02     0.01   0.980
  RD01_5_rdsq_out_with_PP      10.43     207.43       0.00       0.59       0.00       0.00      79.66        0.01     0.01   0.366
  RD01_5_rdsq_out_with_VS      10.43      14.26       0.00       9.94       0.00      14.26      14.27        0.01     0.01   0.578
  RD01_6_rdsq_out_no        10.43       0.00       0.00       0.00      10.20       0.00      10.20        0.03     0.01   0.979
  RD01_6_rdsq_out_with_PP      10.43     206.90       0.00       0.59       0.00       0.00      79.14        0.01     0.01   0.364
  RD01_6_rdsq_out_with_VS      10.43      14.20       0.00       9.98       0.00       0.00       1.19        0.00     0.00   0.048
  RD01_7_rdsq_out_no        10.43       0.00       0.00       0.00      10.17       0.00      10.17        0.02     0.01   0.976
  RD01_7_rdsq_out_with_PP      10.43     205.78       0.00       0.00     205.89       0.00     205.89        0.02     0.01   0.952
  RD01_7_rdsq_out_with_VS      10.43      37.32       0.00      10.17       0.00      37.32      37.75        0.02     0.01   0.791
  RD01_8_rdsq_out_no        10.43       0.00       0.00       0.00      10.19       0.00      10.19        0.02     0.01   0.977
  RD01_8_rdsq_out_with_PP      10.43     206.94       0.00       0.59       0.00       0.00      79.16        0.01     0.01   0.364
  RD01_8_rdsq_out_with_VS      10.43      14.17       0.00       9.98       0.00       0.00       1.28        0.00     0.00   0.052
  RD01_9_rdsq_out_no        10.43       0.00       0.00       0.00      10.19       0.00      10.19        0.03     0.02   0.977
  RD01_9_rdsq_out_with_PP      10.43     206.52       0.00       0.59       0.00       0.00      78.76        0.01     0.01   0.363
  RD01_9_rdsq_out_with_VS      10.43      14.14       0.00       9.98       0.00       0.00       1.03        0.00     0.00   0.042
  RD02_1_rdsq_out_no        10.43       0.00       0.00       0.00      10.19       0.00      10.19        0.05     0.02   0.977
  RD02_1_rdsq_out_with_PP      10.43     206.19       0.00       0.00     206.26       0.00     206.26        0.04     0.02   0.952
  RD02_1_rdsq_out_with_VS      10.43      37.38       0.00      10.15       0.00       0.00       4.73        0.01     0.00   0.099
  RD02_10_rdsq_out_no       10.43       0.00       0.00       0.00      10.19       0.00      10.19        0.06     0.03   0.978
  RD02_10_rdsq_out_with_PP      10.43     206.22       0.00       0.00     206.28       0.00     206.28        0.06     0.03   0.952
  RD02_10_rdsq_out_with_VS      10.43      37.39       0.00      10.15       0.00       0.00       3.62        0.01     0.00   0.076
  RD02_11_rdsq_out_no       10.43       0.00       0.00       0.00      10.19       0.00      10.19        0.04     0.02   0.977
  RD02_11_rdsq_out_with_PP      10.43     206.30       0.00       0.00     206.38       0.00     206.38        0.04     0.02   0.952
  RD02_11_rdsq_out_with_VS      10.43      37.37       0.00      10.14       0.00       0.00       5.37        0.01     0.00   0.112
  RD02_12_rdsq_out_no       10.43       0.00       0.00       0.00      10.19       0.00      10.19        0.04     0.02   0.977
  RD02_12_rdsq_out_with_PP      10.43     206.86       0.00       0.59       0.00       0.00      79.09        0.02     0.01   0.364
  RD02_12_rdsq_out_with_VS      10.43      14.17       0.00       9.98       0.00       0.00       0.79        0.00     0.00   0.032
  RD02_13_rdsq_out_no       10.43       0.00       0.00       0.00      10.21       0.00      10.21        0.02     0.01   0.979
  RD02_13_rdsq_out_with_PP      10.43     205.99       0.00       0.00     206.15       0.00     206.15        0.02     0.01   0.953
  RD02_13_rdsq_out_with_VS      10.43      37.53       0.00      10.15       0.00       0.00      10.99        0.00     0.00   0.229
  RD02_14_rdsq_out_no       10.43       0.00       0.00       0.00      10.20       0.00      10.20        0.02     0.01   0.978
  RD02_14_rdsq_out_with_PP      10.43     207.24       0.00       0.59       0.00       0.00      79.47        0.01     0.00   0.365
  RD02_14_rdsq_out_with_VS      10.43      14.24       0.00       9.98       0.00       0.00       1.63        0.00     0.00   0.066
  RD02_15_rdsq_out_no       10.43       0.00       0.00       0.00      10.22       0.00      10.22        0.02     0.01   0.981
  RD02_15_rdsq_out_with_PP      10.43     207.45       0.00       0.59       0.00       0.00      79.70        0.01     0.01   0.366
  RD02_15_rdsq_out_with_VS      10.43      14.30       0.00       9.98       0.00       0.00       1.31        0.00     0.00   0.053
  RD02_16_rdsq_out_no       10.43       0.00       0.00       0.00      10.22       0.00      10.22        0.03     0.01   0.980
  RD02_16_rdsq_out_with_PP      10.43     207.68       0.00       0.59       0.00       0.00      79.92        0.01     0.01   0.366
  RD02_16_rdsq_out_with_VS      10.43      14.32       0.00       9.98       0.00       0.00       1.24        0.00     0.00   0.050
  RD02_17_rdsq_out_no       10.43       0.00       0.00       0.00      10.20       0.00      10.20        0.03     0.02   0.979
  RD02_17_rdsq_out_with_PP      10.43     206.97       0.00       0.59       0.00       0.00      79.21        0.01     0.01   0.364
  RD02_17_rdsq_out_with_VS      10.43      14.21       0.00       9.94       0.00      14.20      14.21        0.01     0.01   0.577
  RD02_18_rdsq_out_no       10.43       0.00       0.00       0.00      10.23       0.00      10.23        0.02     0.01   0.982
  RD02_18_rdsq_out_with_PP      10.43     206.81       0.00       0.00     206.98       0.00     206.98        0.02     0.01   0.953
  RD02_18_rdsq_out_with_VS      10.43      37.61       0.00      10.15       0.00       0.00      11.24        0.00     0.00   0.234
  RD02_19_rdsq_out_no       10.43       0.00       0.00       0.00      10.21       0.00      10.21        0.02     0.01   0.979
  RD02_19_rdsq_out_with_PP      10.43     206.46       0.00       0.00     206.58       0.00     206.58        0.02     0.01   0.952
  RD02_19_rdsq_out_with_VS      10.43      37.48       0.00      10.15       0.00       0.00       8.38        0.01     0.00   0.175
  RD02_2_rdsq_out_no        10.43       0.00       0.00       0.00      10.18       0.00      10.18        0.05     0.03   0.977
  RD02_2_rdsq_out_with_PP      10.43     206.32       0.00       0.59       0.00       0.00      78.55        0.02     0.01   0.362
  RD02_2_rdsq_out_with_VS      10.43      14.10       0.00       9.98       0.00       0.00       0.65        0.00     0.00   0.027
  RD02_20_rdsq_out_no       10.43       0.00       0.00       0.00      10.21       0.00      10.21        0.02     0.01   0.979
  RD02_20_rdsq_out_with_PP      10.43     205.87       0.00       0.00     205.98       0.00     205.98        0.02     0.01   0.952
  RD02_20_rdsq_out_with_VS      10.43      37.49       0.00      10.15       0.00       0.00       8.73        0.01     0.00   0.182
  RD02_21_rdsq_out_no       10.43       0.00       0.00       0.00      10.19       0.00      10.19        0.03     0.02   0.977
  RD02_21_rdsq_out_with_PP      10.43     206.64       0.00       0.59       0.00       0.00      78.87        0.01     0.01   0.363
  RD02_21_rdsq_out_with_VS      10.43      14.14       0.00       9.98       0.00       0.00       1.08        0.00     0.00   0.044
  RD02_22_rdsq_out_no       10.43       0.00       0.00       0.00      10.19       0.00      10.19        0.03     0.02   0.977
  RD02_22_rdsq_out_with_PP      10.43     206.37       0.00       0.59       0.00       0.00      78.61        0.01     0.01   0.363
  RD02_22_rdsq_out_with_VS      10.43      14.11       0.00       9.98       0.00       0.00       0.98        0.00     0.00   0.040
  RD02_3_rdsq_out_no        10.43       0.00       0.00       0.00      10.22       0.00      10.22        0.04     0.02   0.981
  RD02_3_rdsq_out_with_PP      10.43     206.84       0.00       0.00     206.93       0.00     206.93        0.04     0.02   0.952
  RD02_3_rdsq_out_with_VS      10.43      37.53       0.00      10.15       0.00       0.00       5.63        0.01     0.00   0.117
  RD02_4_rdsq_out_no        10.43       0.00       0.00       0.00      10.19       0.00      10.19        0.04     0.02   0.977
  RD02_4_rdsq_out_with_PP      10.43     206.38       0.00       0.59       0.00       0.00      78.62        0.01     0.01   0.363
  RD02_4_rdsq_out_with_VS      10.43      14.11       0.00       9.98       0.00       0.00       0.81        0.00     0.00   0.033
  RD02_5_rdsq_out_no        10.43       0.00       0.00       0.00      10.20       0.00      10.20        0.03     0.02   0.979
  RD02_5_rdsq_out_with_PP      10.43     206.26       0.00       0.00     206.36       0.00     206.36        0.03     0.02   0.952
  RD02_5_rdsq_out_with_VS      10.43      37.46       0.00      10.15       0.00       0.00       7.02        0.01     0.00   0.147
  RD02_6_rdsq_out_no        10.43       0.00       0.00       0.00      10.23       0.00      10.23        0.03     0.02   0.981
  RD02_6_rdsq_out_with_PP      10.43     207.40       0.00       0.59       0.00       0.00      79.65        0.01     0.01   0.366
  RD02_6_rdsq_out_with_VS      10.43      14.29       0.00       9.94       0.00      14.29      14.30        0.01     0.01   0.578
  RD02_7_rdsq_out_no        10.43       0.00       0.00       0.00      10.25       0.00      10.25        0.02     0.01   0.983
  RD02_7_rdsq_out_with_PP      10.43     207.29       0.00       0.00     207.43       0.00     207.43        0.02     0.01   0.953
  RD02_7_rdsq_out_with_VS      10.43      37.61       0.00      10.17       0.00      37.61      38.17        0.02     0.01   0.795
  RD02_8_rdsq_out_no        10.43       0.00       0.00       0.00      10.21       0.00      10.21        0.03     0.01   0.980
  RD02_8_rdsq_out_with_PP      10.43     206.96       0.00       0.59       0.00       0.00      79.20        0.01     0.01   0.364
  RD02_8_rdsq_out_with_VS      10.43      14.23       0.00       9.98       0.00       0.00       1.17        0.00     0.00   0.047
  RD02_9_rdsq_out_no        10.43       0.00       0.00       0.00      10.18       0.00      10.18        0.06     0.03   0.977
  RD02_9_rdsq_out_with_PP      10.43     206.40       0.00       0.59       0.00       0.00      78.63        0.02     0.01   0.363
  RD02_9_rdsq_out_with_VS      10.43      14.10       0.00       9.97       0.00       0.00       0.55        0.00     0.00   0.022
  RD03_1_rdsq_out_no        10.43       0.00       0.00       0.00      10.19       0.00      10.19        0.05     0.03   0.977
  RD03_1_rdsq_out_with_PP      10.43     205.99       0.00       0.00     206.05       0.00     206.05        0.05     0.03   0.952
  RD03_1_rdsq_out_with_VS      10.43      37.38       0.00      10.15       0.00       0.00       4.02        0.01     0.00   0.084
  RD03_10_rdsq_out_no       10.43       0.00       0.00       0.00      10.18       0.00      10.18        0.05     0.02   0.976
  RD03_10_rdsq_out_with_PP      10.43     206.52       0.00       0.59       0.00       0.00      78.74        0.02     0.01   0.363
  RD03_10_rdsq_out_with_VS      10.43      14.11       0.00       9.98       0.00       0.00       0.70        0.00     0.00   0.029
  RD03_2_rdsq_out_no        10.43       0.00       0.00       0.00      10.18       0.00      10.18        0.06     0.03   0.977
  RD03_2_rdsq_out_with_PP      10.43     206.28       0.00       0.00     206.33       0.00     206.33        0.06     0.03   0.952
  RD03_2_rdsq_out_with_VS      10.43      37.37       0.00      10.15       0.00       0.00       3.51        0.01     0.00   0.073
  RD03_3_rdsq_out_no        10.43       0.00       0.00       0.00      10.15       0.00      10.15        0.06     0.03   0.973
  RD03_3_rdsq_out_with_PP      10.43     205.20       0.00       0.00     205.26       0.00     205.26        0.06     0.03   0.952
  RD03_3_rdsq_out_with_VS      10.43      37.22       0.00      10.15       0.00       0.00       3.59        0.01     0.00   0.075
  RD03_4_rdsq_out_no        10.43       0.00       0.00       0.00      10.15       0.00      10.15        0.06     0.03   0.973
  RD03_4_rdsq_out_with_PP      10.43     205.19       0.00       0.00     205.25       0.00     205.25        0.06     0.03   0.952
  RD03_4_rdsq_out_with_VS      10.43      37.21       0.00      10.15       0.00       0.00       3.58        0.01     0.00   0.075
  RD03_5_rdsq_out_no        10.43       0.00       0.00       0.00      10.20       0.00      10.20        0.04     0.02   0.978
  RD03_5_rdsq_out_with_PP      10.43     206.69       0.00       0.59       0.00       0.00      78.93        0.01     0.01   0.364
  RD03_5_rdsq_out_with_VS      10.43      14.17       0.00       9.98       0.00       0.00       0.83        0.00     0.00   0.034
  RD03_6_rdsq_out_no        10.43       0.00       0.00       0.00      10.20       0.00      10.20        0.04     0.02   0.978
  RD03_6_rdsq_out_with_PP      10.43     206.63       0.00       0.00     206.71       0.00     206.71        0.04     0.02   0.952
  RD03_6_rdsq_out_with_VS      10.43      37.43       0.00      10.15       0.00       0.00       4.99        0.01     0.00   0.104
  RD03_7_rdsq_out_no        10.43       0.00       0.00       0.00      10.20       0.00      10.20        0.04     0.02   0.979
  RD03_7_rdsq_out_with_PP      10.43     206.88       0.00       0.59       0.00       0.00      79.11        0.02     0.01   0.364
  RD03_7_rdsq_out_with_VS      10.43      14.20       0.00       9.98       0.00       0.00       0.77        0.00     0.00   0.031
  RD03_8_rdsq_out_no        10.43       0.00       0.00       0.00      10.20       0.00      10.20        0.05     0.03   0.978
  RD03_8_rdsq_out_with_PP      10.43     206.38       0.00       0.00     206.45       0.00     206.45        0.05     0.03   0.952
  RD03_8_rdsq_out_with_VS      10.43      37.42       0.00      10.16       0.00       0.00       4.65        0.01     0.00   0.097
  RD03_9_rdsq_out_no        10.43       0.00       0.00       0.00      10.22       0.00      10.22        0.04     0.02   0.981
  RD03_9_rdsq_out_with_PP      10.43     206.78       0.00       0.00     206.85       0.00     206.85        0.04     0.02   0.952
  RD03_9_rdsq_out_with_VS      10.43      37.52       0.00      10.16       0.00       0.00       4.87        0.01     0.00   0.102
  RD04_1_rdsq_out_no        10.43       0.00       0.00       0.00      10.23       0.00      10.23        0.03     0.01   0.981
  RD04_1_rdsq_out_with_PP      10.43     206.60       0.00       0.00     206.69       0.00     206.69        0.03     0.01   0.952
  RD04_1_rdsq_out_with_VS      10.43      37.57       0.00      10.16       0.00       0.00       7.54        0.01     0.00   0.157
  RD04_10_rdsq_out_no       10.43       0.00       0.00       0.00      10.21       0.00      10.21        0.03     0.02   0.979
  RD04_10_rdsq_out_with_PP      10.43     207.25       0.00       0.59       0.00       0.00      79.48        0.01     0.01   0.365
  RD04_10_rdsq_out_with_VS      10.43      14.23       0.00       9.94       0.00      14.23      14.24        0.01     0.01   0.577
  RD04_11_rdsq_out_no       10.43       0.00       0.00       0.00      10.20       0.00      10.20        0.06     0.03   0.979
  RD04_11_rdsq_out_with_PP      10.43     206.91       0.00       0.59       0.00       0.00      79.15        0.02     0.01   0.364
  RD04_11_rdsq_out_with_VS      10.43      14.20       0.00       9.98       0.00       0.00       0.59        0.00     0.00   0.024
  RD04_12_rdsq_out_no       10.43       0.00       0.00       0.00      10.18       0.00      10.18        0.06     0.03   0.977
  RD04_12_rdsq_out_with_PP      10.43     206.38       0.00       0.59       0.00       0.00      78.61        0.02     0.02   0.363
  RD04_12_rdsq_out_with_VS      10.43      14.11       0.00       9.98       0.00       0.00       0.53        0.00     0.00   0.021
  RD04_2_rdsq_out_no        10.43       0.00       0.00       0.00      10.20       0.00      10.20        0.05     0.03   0.978
  RD04_2_rdsq_out_with_PP      10.43     206.65       0.00       0.59       0.00       0.00      78.89        0.02     0.01   0.363
  RD04_2_rdsq_out_with_VS      10.43      14.16       0.00       9.97       0.00       0.00       0.65        0.00     0.00   0.026
  RD04_3_rdsq_out_no        10.43       0.00       0.00       0.00      10.18       0.00      10.18        0.05     0.03   0.977
  RD04_3_rdsq_out_with_PP      10.43     205.96       0.00       0.00     206.03       0.00     206.03        0.05     0.03   0.952
  RD04_3_rdsq_out_with_VS      10.43      37.37       0.00      10.15       0.00       0.00       4.38        0.01     0.00   0.092
  RD04_4_rdsq_out_no        10.43       0.00       0.00       0.00      10.18       0.00      10.18        0.05     0.03   0.977
  RD04_4_rdsq_out_with_PP      10.43     206.37       0.00       0.59       0.00       0.00      78.59        0.02     0.01   0.363
  RD04_4_rdsq_out_with_VS      10.43      14.10       0.00       9.98       0.00       0.00       0.68        0.00     0.00   0.028
  RD04_5_rdsq_out_no        10.43       0.00       0.00       0.00      10.21       0.00      10.21        0.07     0.04   0.979
  RD04_5_rdsq_out_with_PP      10.43     207.16       0.00       0.59       0.00       0.00      79.40        0.02     0.02   0.365
  RD04_5_rdsq_out_with_VS      10.43      14.24       0.00       9.98       0.00       0.00       0.51        0.00     0.00   0.021
  RD04_6_rdsq_out_no        10.43       0.00       0.00       0.00      10.20       0.00      10.20        0.05     0.03   0.979
  RD04_6_rdsq_out_with_PP      10.43     206.73       0.00       0.59       0.00       0.00      78.98        0.02     0.01   0.364
  RD04_6_rdsq_out_with_VS      10.43      14.18       0.00       9.98       0.00       0.00       0.60        0.00     0.00   0.025
  RD04_7_rdsq_out_no        10.43       0.00       0.00       0.00      10.20       0.00      10.20        0.04     0.02   0.978
  RD04_7_rdsq_out_with_PP      10.43     206.59       0.00       0.00     206.67       0.00     206.67        0.04     0.02   0.952
  RD04_7_rdsq_out_with_VS      10.43      37.42       0.00      10.15       0.00       0.00       5.03        0.01     0.00   0.105
  RD04_8_rdsq_out_no        10.43       0.00       0.00       0.00      10.17       0.00      10.17        0.03     0.02   0.976
  RD04_8_rdsq_out_with_PP      10.43     206.02       0.00       0.00     206.10       0.00     206.10        0.03     0.02   0.952
  RD04_8_rdsq_out_with_VS      10.43      37.34       0.00      10.15       0.00       0.00       6.03        0.01     0.00   0.126
  RD04_9_rdsq_out_no        10.43       0.00       0.00       0.00      10.21       0.00      10.21        0.03     0.02   0.979
  RD04_9_rdsq_out_with_PP      10.43     206.23       0.00       0.00     206.33       0.00     206.33        0.03     0.02   0.952
  RD04_9_rdsq_out_with_VS      10.43      37.44       0.00      10.17       0.00      37.44      37.78        0.03     0.02   0.789
  RD05_1_rdsq_out_no        10.43       0.00       0.00       0.00      10.21       0.00      10.21        0.04     0.02   0.979
  RD05_1_rdsq_out_with_PP      10.43     206.56       0.00       0.00     206.64       0.00     206.64        0.04     0.02   0.952
  RD05_1_rdsq_out_with_VS      10.43      37.48       0.00      10.15       0.00       0.00       5.39        0.01     0.00   0.112
  RD05_10_rdsq_out_no       10.43       0.00       0.00       0.00      10.23       0.00      10.23        0.02     0.01   0.981
  RD05_10_rdsq_out_with_PP      10.43     207.87       0.00       0.59       0.00       0.00      80.11        0.01     0.01   0.367
  RD05_10_rdsq_out_with_VS      10.43      14.36       0.00       9.98       0.00       0.00       1.36        0.00     0.00   0.055
  RD05_11_rdsq_out_no       10.43       0.00       0.00       0.00      10.24       0.00      10.24        0.01     0.01   0.983
  RD05_11_rdsq_out_with_PP      10.43     207.25       0.00       0.00     207.44       0.00     207.44        0.01     0.01   0.953
  RD05_11_rdsq_out_with_VS      10.43      37.65       0.00      10.15       0.00       0.00      12.83        0.00     0.00   0.267
  RD05_12_rdsq_out_no       10.43       0.00       0.00       0.00      10.25       0.00      10.25        0.01     0.01   0.983
  RD05_12_rdsq_out_with_PP      10.43     207.31       0.00       0.00     207.50       0.00     207.50        0.01     0.01   0.953
  RD05_12_rdsq_out_with_VS      10.43      37.66       0.00      10.15       0.00       0.00      12.84        0.00     0.00   0.267
  RD05_13_rdsq_out_no       10.43       0.00       0.00       0.00      10.20       0.00      10.20        0.04     0.02   0.979
  RD05_13_rdsq_out_with_PP      10.43     206.84       0.00       0.59       0.00       0.00      79.08        0.02     0.01   0.364
  RD05_13_rdsq_out_with_VS      10.43      14.19       0.00       9.98       0.00       0.00       0.80        0.00     0.00   0.033
  RD05_14_rdsq_out_no       10.43       0.00       0.00       0.00      10.21       0.00      10.21        0.05     0.02   0.980
  RD05_14_rdsq_out_with_PP      10.43     207.39       0.00       0.59       0.00       0.00      79.63        0.02     0.01   0.366
  RD05_14_rdsq_out_with_VS      10.43      14.27       0.00       9.98       0.00       0.00       0.73        0.00     0.00   0.030
  RD05_15_rdsq_out_no       10.43       0.00       0.00       0.00      10.21       0.00      10.21        0.02     0.01   0.980
  RD05_15_rdsq_out_with_PP      10.43     205.95       0.00       0.00     206.10       0.00     206.10        0.02     0.01   0.952
  RD05_15_rdsq_out_with_VS      10.43      37.50       0.00      10.15       0.00       0.00      10.77        0.00     0.00   0.225
  RD05_16_rdsq_out_no       10.43       0.00       0.00       0.00      10.19       0.00      10.19        0.02     0.01   0.978
  RD05_16_rdsq_out_with_PP      10.43     207.30       0.00       0.59       0.00       0.00      79.52        0.01     0.00   0.365
  RD05_16_rdsq_out_with_VS      10.43      14.23       0.00       9.98       0.00       0.00       1.73        0.00     0.00   0.070
  RD05_17_rdsq_out_no       10.43       0.00       0.00       0.00      10.19       0.00      10.19        0.02     0.01   0.978
  RD05_17_rdsq_out_with_PP      10.43     205.77       0.00       0.00     205.92       0.00     205.92        0.02     0.01   0.952
  RD05_17_rdsq_out_with_VS      10.43      37.45       0.00      10.15       0.00       0.00      11.03        0.00     0.00   0.230
  RD05_18_rdsq_out_no       10.43       0.00       0.00       0.00      10.20       0.00      10.20        0.02     0.01   0.979
  RD05_18_rdsq_out_with_PP      10.43     207.60       0.00       0.59       0.00       0.00      79.83        0.01     0.00   0.366
  RD05_18_rdsq_out_with_VS      10.43      14.27       0.00       9.98       0.00       0.00       1.80        0.00     0.00   0.073
  RD05_19_rdsq_out_no       10.43       0.00       0.00       0.00      10.22       0.00      10.22        0.02     0.01   0.980
  RD05_19_rdsq_out_with_PP      10.43     206.14       0.00       0.00     206.29       0.00     206.29        0.02     0.01   0.953
  RD05_19_rdsq_out_with_VS      10.43      37.52       0.00      10.15       0.00       0.00      10.59        0.00     0.00   0.221
  RD05_2_rdsq_out_no        10.43       0.00       0.00       0.00      10.16       0.00      10.16        0.04     0.02   0.974
  RD05_2_rdsq_out_with_PP      10.43     205.47       0.00       0.00     205.53       0.00     205.53        0.04     0.02   0.952
  RD05_2_rdsq_out_with_VS      10.43      37.27       0.00      10.15       0.00       0.00       4.89        0.01     0.00   0.103
  RD05_20_rdsq_out_no       10.43       0.00       0.00       0.00      10.20       0.00      10.20        0.02     0.01   0.978
  RD05_20_rdsq_out_with_PP      10.43     207.48       0.00       0.59       0.00       0.00      79.71        0.01     0.00   0.366
  RD05_20_rdsq_out_with_VS      10.43      14.25       0.00       9.94       0.00      14.24      14.26        0.01     0.00   0.578
  RD05_21_rdsq_out_no       10.43       0.00       0.00       0.00      10.23       0.00      10.23        0.01     0.01   0.981
  RD05_21_rdsq_out_with_PP      10.43     207.54       0.00       0.59       0.00       0.00      79.79        0.00     0.00   0.366
  RD05_21_rdsq_out_with_VS      10.43      14.30       0.00       9.94       0.00      14.30      14.32        0.00     0.00   0.579
  RD05_22_rdsq_out_no       10.43       0.00       0.00       0.00      10.24       0.00      10.24        0.01     0.01   0.982
  RD05_22_rdsq_out_with_PP      10.43     207.27       0.00       0.00     207.49       0.00     207.49        0.01     0.01   0.953
  RD05_22_rdsq_out_with_VS      10.43      37.58       0.00      10.17       0.00      37.57      38.47        0.01     0.01   0.801
  RD05_23_rdsq_out_no       10.43       0.00       0.00       0.00      10.21       0.00      10.21        0.02     0.01   0.980
  RD05_23_rdsq_out_with_PP      10.43     207.01       0.00       0.59       0.00       0.00      79.25        0.01     0.00   0.364
  RD05_23_rdsq_out_with_VS      10.43      14.22       0.00       9.94       0.00      14.22      14.23        0.01     0.00   0.577
  RD05_24_rdsq_out_no       10.43       0.00       0.00       0.00      10.21       0.00      10.21        0.02     0.01   0.980
  RD05_24_rdsq_out_with_PP      10.43     206.42       0.00       0.00     206.57       0.00     206.57        0.02     0.01   0.953
  RD05_24_rdsq_out_with_VS      10.43      37.53       0.00      10.15       0.00       0.00      10.02        0.00     0.00   0.209
  RD05_25_rdsq_out_no       10.43       0.00       0.00       0.00      10.23       0.00      10.23        0.01     0.01   0.981
  RD05_25_rdsq_out_with_PP      10.43     208.85       0.00       0.59       0.00       0.00      81.07        0.01     0.00   0.370
  RD05_25_rdsq_out_with_VS      10.43      14.43       0.00       9.94       0.00      14.43      14.44        0.00     0.00   0.581
  RD05_26_rdsq_out_no       10.43       0.00       0.00       0.00      10.24       0.00      10.24        0.01     0.01   0.982
  RD05_26_rdsq_out_with_PP      10.43     207.51       0.00       0.59       0.00       0.00      79.76        0.00     0.00   0.366
  RD05_26_rdsq_out_with_VS      10.43      14.30       0.00       9.94       0.00      14.30      14.32        0.00     0.00   0.579
  RD05_3_rdsq_out_no        10.43       0.00       0.00       0.00      10.19       0.00      10.19        0.05     0.02   0.978
  RD05_3_rdsq_out_with_PP      10.43     206.18       0.00       0.00     206.25       0.00     206.25        0.04     0.02   0.952
  RD05_3_rdsq_out_with_VS      10.43      37.40       0.00      10.15       0.00       0.00       4.76        0.01     0.00   0.099
  RD05_4_rdsq_out_no        10.43       0.00       0.00       0.00      10.15       0.00      10.15        0.04     0.02   0.974
  RD05_4_rdsq_out_with_PP      10.43     206.08       0.00       0.59       0.00       0.00      78.29        0.02     0.01   0.362
  RD05_4_rdsq_out_with_VS      10.43      14.01       0.00       9.97       0.00       0.00       0.71        0.00     0.00   0.029
  RD05_5_rdsq_out_no        10.43       0.00       0.00       0.00      10.25       0.00      10.25        0.02     0.01   0.983
  RD05_5_rdsq_out_with_PP      10.43     207.55       0.00       0.00     207.70       0.00     207.70        0.02     0.01   0.953
  RD05_5_rdsq_out_with_VS      10.43      37.60       0.00      10.17       0.00      37.59      38.16        0.02     0.01   0.795
  RD05_6_rdsq_out_no        10.43       0.00       0.00       0.00      10.22       0.00      10.22        0.02     0.01   0.980
  RD05_6_rdsq_out_with_PP      10.43     206.17       0.00       0.00     206.30       0.00     206.30        0.02     0.01   0.952
  RD05_6_rdsq_out_with_VS      10.43      37.50       0.00      10.17       0.00      37.50      38.07        0.02     0.01   0.794
  RD05_7_rdsq_out_no        10.43       0.00       0.00       0.00      10.25       0.00      10.25        0.01     0.01   0.983
  RD05_7_rdsq_out_with_PP      10.43     209.40       0.00       0.59       0.00       0.00      81.62        0.00     0.00   0.371
  RD05_7_rdsq_out_with_VS      10.43      14.56       0.00       9.98       0.00       0.00       2.61        0.00     0.00   0.104
  RD05_8_rdsq_out_no        10.43       0.00       0.00       0.00      10.25       0.00      10.25        0.01     0.01   0.983
  RD05_8_rdsq_out_with_PP      10.43     206.24       0.00       0.00     206.45       0.00     206.45        0.01     0.01   0.953
  RD05_8_rdsq_out_with_VS      10.43      37.70       0.00      10.15       0.00       0.00      14.51        0.00     0.00   0.301
  RD05_9_rdsq_out_no        10.43       0.00       0.00       0.00      10.21       0.00      10.21        0.02     0.01   0.980
  RD05_9_rdsq_out_with_PP      10.43     206.11       0.00       0.00     206.22       0.00     206.22        0.02     0.01   0.952
  RD05_9_rdsq_out_with_VS      10.43      37.52       0.00      10.15       0.00       0.00       8.18        0.01     0.00   0.171
  RD06_1_rdsq_out_no        10.43       0.00       0.00       0.00      10.23       0.00      10.23        0.02     0.01   0.981
  RD06_1_rdsq_out_with_PP      10.43     207.17       0.00       0.00     207.30       0.00     207.30        0.02     0.01   0.953
  RD06_1_rdsq_out_with_VS      10.43      37.57       0.00      10.17       0.00      37.57      38.04        0.02     0.01   0.793
  RD06_10_rdsq_out_no       10.43       0.00       0.00       0.00      10.19       0.00      10.19        0.04     0.02   0.977
  RD06_10_rdsq_out_with_PP      10.43     206.87       0.00       0.59       0.00       0.00      79.09        0.02     0.01   0.364
  RD06_10_rdsq_out_with_VS      10.43      14.16       0.00       9.97       0.00       0.00       0.78        0.00     0.00   0.032
  RD06_11_rdsq_out_no       10.43       0.00       0.00       0.00      10.20       0.00      10.20        0.03     0.02   0.978
  RD06_11_rdsq_out_with_PP      10.43     207.08       0.00       0.59       0.00       0.00      79.31        0.01     0.01   0.365
  RD06_11_rdsq_out_with_VS      10.43      14.20       0.00       9.94       0.00      14.20      14.21        0.01     0.01   0.577
  RD06_12_rdsq_out_no       10.43       0.00       0.00       0.00      10.19       0.00      10.19        0.03     0.02   0.977
  RD06_12_rdsq_out_with_PP      10.43     205.79       0.00       0.00     205.88       0.00     205.88        0.03     0.02   0.952
  RD06_12_rdsq_out_with_VS      10.43      37.39       0.00      10.15       0.00       0.00       6.67        0.01     0.00   0.139
  RD06_13_rdsq_out_no       10.43       0.00       0.00       0.00      10.22       0.00      10.22        0.02     0.01   0.981
  RD06_13_rdsq_out_with_PP      10.43     208.11       0.00       0.59       0.00       0.00      80.34        0.01     0.00   0.368
  RD06_13_rdsq_out_with_VS      10.43      14.36       0.00       9.94       0.00      14.36      14.37        0.01     0.00   0.580
  RD06_14_rdsq_out_no       10.43       0.00       0.00       0.00      10.22       0.00      10.22        0.02     0.01   0.980
  RD06_14_rdsq_out_with_PP      10.43     207.27       0.00       0.59       0.00       0.00      79.51        0.01     0.01   0.365
  RD06_14_rdsq_out_with_VS      10.43      14.27       0.00       9.98       0.00       0.00       1.46        0.00     0.00   0.059
  RD06_15_rdsq_out_no       10.43       0.00       0.00       0.00      10.19       0.00      10.19        0.05     0.03   0.977
  RD06_15_rdsq_out_with_PP      10.43     206.59       0.00       0.59       0.00       0.00      78.82        0.02     0.01   0.363
  RD06_15_rdsq_out_with_VS      10.43      14.13       0.00       9.97       0.00       0.00       0.67        0.00     0.00   0.027
  RD06_16_rdsq_out_no       10.43       0.00       0.00       0.00      10.18       0.00      10.18        0.06     0.03   0.977
  RD06_16_rdsq_out_with_PP      10.43     205.96       0.00       0.00     206.02       0.00     206.02        0.06     0.03   0.952
  RD06_16_rdsq_out_with_VS      10.43      37.36       0.00      10.15       0.00       0.00       3.64        0.01     0.00   0.076
  RD06_17_rdsq_out_no       10.43       0.00       0.00       0.00      10.19       0.00      10.19        0.04     0.02   0.978
  RD06_17_rdsq_out_with_PP      10.43     205.92       0.00       0.00     205.99       0.00     205.99        0.04     0.02   0.952
  RD06_17_rdsq_out_with_VS      10.43      37.39       0.00      10.17       0.00      37.39      37.68        0.04     0.02   0.788
  RD06_18_rdsq_out_no       10.43       0.00       0.00       0.00      10.21       0.00      10.21        0.03     0.02   0.979
  RD06_18_rdsq_out_with_PP      10.43     207.11       0.00       0.59       0.00       0.00      79.35        0.01     0.01   0.365
  RD06_18_rdsq_out_with_VS      10.43      14.22       0.00       9.94       0.00      14.22      14.23        0.01     0.01   0.577
  RD06_19_rdsq_out_no       10.43       0.00       0.00       0.00      10.21       0.00      10.21        0.02     0.01   0.979
  RD06_19_rdsq_out_with_PP      10.43     205.89       0.00       0.00     206.00       0.00     206.00        0.02     0.01   0.952
  RD06_19_rdsq_out_with_VS      10.43      37.50       0.00      10.15       0.00       0.00       8.42        0.01     0.00   0.176
  RD06_2_rdsq_out_no        10.43       0.00       0.00       0.00      10.23       0.00      10.23        0.02     0.01   0.982
  RD06_2_rdsq_out_with_PP      10.43     207.49       0.00       0.59       0.00       0.00      79.73        0.01     0.01   0.366
  RD06_2_rdsq_out_with_VS      10.43      14.30       0.00       9.94       0.00      14.30      14.31        0.01     0.01   0.579
  RD06_20_rdsq_out_no       10.43       0.00       0.00       0.00      10.21       0.00      10.21        0.02     0.01   0.980
  RD06_20_rdsq_out_with_PP      10.43     207.35       0.00       0.59       0.00       0.00      79.59        0.01     0.01   0.365
  RD06_20_rdsq_out_with_VS      10.43      14.25       0.00       9.94       0.00      14.25      14.26        0.01     0.01   0.578
  RD06_21_rdsq_out_no       10.43       0.00       0.00       0.00      10.22       0.00      10.22        0.03     0.01   0.980
  RD06_21_rdsq_out_with_PP      10.43     207.87       0.00       0.59       0.00       0.00      80.10        0.01     0.01   0.367
  RD06_21_rdsq_out_with_VS      10.43      14.33       0.00       9.98       0.00       0.00       1.28        0.00     0.00   0.052
  RD06_22_rdsq_out_no       10.43       0.00       0.00       0.00      10.21       0.00      10.21        0.02     0.01   0.980
  RD06_22_rdsq_out_with_PP      10.43     207.41       0.00       0.59       0.00       0.00      79.65        0.01     0.01   0.366
  RD06_22_rdsq_out_with_VS      10.43      14.26       0.00       9.94       0.00      14.26      14.27        0.01     0.01   0.578
  RD06_23_rdsq_out_no       10.43       0.00       0.00       0.00      10.21       0.00      10.21        0.03     0.02   0.980
  RD06_23_rdsq_out_with_PP      10.43     206.71       0.00       0.00     206.80       0.00     206.80        0.03     0.02   0.952
  RD06_23_rdsq_out_with_VS      10.43      37.48       0.00      10.17       0.00      37.48      37.81        0.03     0.02   0.789
  RD06_24_rdsq_out_no       10.43       0.00       0.00       0.00      10.21       0.00      10.21        0.03     0.02   0.979
  RD06_24_rdsq_out_with_PP      10.43     206.34       0.00       0.00     206.45       0.00     206.45        0.03     0.02   0.952
  RD06_24_rdsq_out_with_VS      10.43      37.49       0.00      10.15       0.00       0.00       7.12        0.01     0.00   0.149
  RD06_3_rdsq_out_no        10.43       0.00       0.00       0.00      10.19       0.00      10.19        0.03     0.02   0.978
  RD06_3_rdsq_out_with_PP      10.43     206.78       0.00       0.59       0.00       0.00      79.01        0.01     0.01   0.364
  RD06_3_rdsq_out_with_VS      10.43      14.17       0.00       9.98       0.00       0.00       1.08        0.00     0.00   0.044
  RD06_4_rdsq_out_no        10.43       0.00       0.00       0.00      10.18       0.00      10.18        0.03     0.02   0.977
  RD06_4_rdsq_out_with_PP      10.43     206.71       0.00       0.59       0.00       0.00      78.94        0.01     0.01   0.364
  RD06_4_rdsq_out_with_VS      10.43      14.13       0.00       9.94       0.00      14.13      14.14        0.01     0.01   0.576
  RD06_5_rdsq_out_no        10.43       0.00       0.00       0.00      10.20       0.00      10.20        0.04     0.02   0.978
  RD06_5_rdsq_out_with_PP      10.43     206.26       0.00       0.00     206.35       0.00     206.35        0.04     0.02   0.952
  RD06_5_rdsq_out_with_VS      10.43      37.41       0.00      10.17       0.00      37.41      37.71        0.03     0.02   0.788
  RD06_6_rdsq_out_no        10.43       0.00       0.00       0.00      10.21       0.00      10.21        0.02     0.01   0.979
  RD06_6_rdsq_out_with_PP      10.43     205.86       0.00       0.00     205.99       0.00     205.99        0.02     0.01   0.952
  RD06_6_rdsq_out_with_VS      10.43      37.47       0.00      10.17       0.00      37.47      38.01        0.02     0.01   0.794
  RD06_7_rdsq_out_no        10.43       0.00       0.00       0.00      10.18       0.00      10.18        0.04     0.02   0.977
  RD06_7_rdsq_out_with_PP      10.43     206.06       0.00       0.00     206.13       0.00     206.13        0.04     0.02   0.952
  RD06_7_rdsq_out_with_VS      10.43      37.37       0.00      10.15       0.00       0.00       5.24        0.01     0.00   0.110
  RD06_8_rdsq_out_no        10.43       0.00       0.00       0.00      10.20       0.00      10.20        0.04     0.02   0.979
  RD06_8_rdsq_out_with_PP      10.43     206.60       0.00       0.00     206.68       0.00     206.68        0.04     0.02   0.952
  RD06_8_rdsq_out_with_VS      10.43      37.43       0.00      10.17       0.00      37.43      37.72        0.04     0.02   0.788
  RD06_9_rdsq_out_no        10.43       0.00       0.00       0.00      10.21       0.00      10.21        0.02     0.01   0.979
  RD06_9_rdsq_out_with_PP      10.43     206.62       0.00       0.00     206.76       0.00     206.76        0.02     0.01   0.953
  RD06_9_rdsq_out_with_VS      10.43      37.47       0.00      10.15       0.00       0.00      10.24        0.00     0.00   0.214
  RD07_1_rdsq_out_no        10.43       0.00       0.00       0.00      10.17       0.00      10.17        0.10     0.05   0.976
  RD07_1_rdsq_out_with_PP      10.43     206.29       0.00       0.59       0.00       0.00      78.51        0.04     0.02   0.362
  RD07_1_rdsq_out_with_VS      10.43      14.07       0.00       9.98       0.00       0.00       0.33        0.00     0.00   0.013
  RD07_10_rdsq_out_no       10.43       0.00       0.00       0.00      10.20       0.00      10.20        0.03     0.02   0.978
  RD07_10_rdsq_out_with_PP      10.43     206.29       0.00       0.00     206.39       0.00     206.39        0.03     0.02   0.952
  RD07_10_rdsq_out_with_VS      10.43      37.44       0.00      10.15       0.00       0.00       6.08        0.01     0.00   0.127
  RD07_11_rdsq_out_no       10.43       0.00       0.00       0.00      10.19       0.00      10.19        0.05     0.03   0.977
  RD07_11_rdsq_out_with_PP      10.43     206.37       0.00       0.00     206.43       0.00     206.43        0.05     0.03   0.952
  RD07_11_rdsq_out_with_VS      10.43      37.38       0.00      10.15       0.00       0.00       4.40        0.01     0.00   0.092
  RD07_12_rdsq_out_no       10.43       0.00       0.00       0.00      10.22       0.00      10.22        0.04     0.02   0.980
  RD07_12_rdsq_out_with_PP      10.43     206.64       0.00       0.00     206.72       0.00     206.72        0.04     0.02   0.952
  RD07_12_rdsq_out_with_VS      10.43      37.51       0.00      10.16       0.00       0.00       5.89        0.01     0.00   0.123
  RD07_13_rdsq_out_no       10.43       0.00       0.00       0.00      10.19       0.00      10.19        0.04     0.02   0.978
  RD07_13_rdsq_out_with_PP      10.43     206.97       0.00       0.59       0.00       0.00      79.20        0.01     0.01   0.364
  RD07_13_rdsq_out_with_VS      10.43      14.19       0.00       9.98       0.00       0.00       0.85        0.00     0.00   0.034
  RD07_14_rdsq_out_no       10.43       0.00       0.00       0.00      10.20       0.00      10.20        0.03     0.02   0.978
  RD07_14_rdsq_out_with_PP      10.43     206.45       0.00       0.00     206.53       0.00     206.53        0.03     0.02   0.952
  RD07_14_rdsq_out_with_VS      10.43      37.40       0.00      10.17       0.00      37.40      37.72        0.03     0.02   0.789
  RD07_15_rdsq_out_no       10.43       0.00       0.00       0.00      10.18       0.00      10.18        0.06     0.03   0.977
  RD07_15_rdsq_out_with_PP      10.43     206.02       0.00       0.00     206.08       0.00     206.08        0.06     0.03   0.952
  RD07_15_rdsq_out_with_VS      10.43      37.36       0.00      10.15       0.00       0.00       3.89        0.01     0.00   0.081
  RD07_2_rdsq_out_no        10.43       0.00       0.00       0.00      10.19       0.00      10.19        0.04     0.02   0.977
  RD07_2_rdsq_out_with_PP      10.43     206.86       0.00       0.59       0.00       0.00      79.09        0.02     0.01   0.364
  RD07_2_rdsq_out_with_VS      10.43      14.17       0.00       9.98       0.00       0.00       0.75        0.00     0.00   0.030
  RD07_3_rdsq_out_no        10.43       0.00       0.00       0.00      10.18       0.00      10.18        0.05     0.03   0.976
  RD07_3_rdsq_out_with_PP      10.43     205.81       0.00       0.00     205.88       0.00     205.88        0.05     0.03   0.952
  RD07_3_rdsq_out_with_VS      10.43      37.36       0.00      10.15       0.00       0.00       4.21        0.01     0.00   0.088
  RD07_4_rdsq_out_no        10.43       0.00       0.00       0.00      10.19       0.00      10.19        0.05     0.03   0.978
  RD07_4_rdsq_out_with_PP      10.43     206.23       0.00       0.00     206.30       0.00     206.30        0.05     0.03   0.952
  RD07_4_rdsq_out_with_VS      10.43      37.41       0.00      10.16       0.00       0.00       4.50        0.01     0.00   0.094
  RD07_5_rdsq_out_no        10.43       0.00       0.00       0.00      10.22       0.00      10.22        0.03     0.02   0.981
  RD07_5_rdsq_out_with_PP      10.43     207.48       0.00       0.59       0.00       0.00      79.72        0.01     0.01   0.366
  RD07_5_rdsq_out_with_VS      10.43      14.30       0.00       9.98       0.00       0.00       1.06        0.00     0.00   0.043
  RD07_6_rdsq_out_no        10.43       0.00       0.00       0.00      10.20       0.00      10.20        0.03     0.02   0.978
  RD07_6_rdsq_out_with_PP      10.43     206.40       0.00       0.00     206.49       0.00     206.49        0.03     0.02   0.952
  RD07_6_rdsq_out_with_VS      10.43      37.45       0.00      10.15       0.00       0.00       6.19        0.01     0.00   0.129
  RD07_7_rdsq_out_no        10.43       0.00       0.00       0.00      10.18       0.00      10.18        0.03     0.02   0.977
  RD07_7_rdsq_out_with_PP      10.43     205.66       0.00       0.00     205.75       0.00     205.75        0.03     0.02   0.952
  RD07_7_rdsq_out_with_VS      10.43      37.36       0.00      10.17       0.00      37.36      37.71        0.03     0.02   0.789
  RD07_8_rdsq_out_no        10.43       0.00       0.00       0.00      10.18       0.00      10.18        0.04     0.02   0.976
  RD07_8_rdsq_out_with_PP      10.43     206.37       0.00       0.59       0.00       0.00      78.60        0.02     0.01   0.363
  RD07_8_rdsq_out_with_VS      10.43      14.09       0.00       9.97       0.00       0.00       0.73        0.00     0.00   0.030
  RD07_9_rdsq_out_no        10.43       0.00       0.00       0.00      10.20       0.00      10.20        0.02     0.01   0.978
  RD07_9_rdsq_out_with_PP      10.43     207.63       0.00       0.59       0.00       0.00      79.85        0.01     0.00   0.366
  RD07_9_rdsq_out_with_VS      10.43      14.28       0.00       9.98       0.00       0.00       1.61        0.00     0.00   0.065
  RD08_1_rdsq_out_no        10.43       0.00       0.00       0.00      10.18       0.00      10.18        0.04     0.02   0.977
  RD08_1_rdsq_out_with_PP      10.43     206.09       0.00       0.00     206.16       0.00     206.16        0.04     0.02   0.952
  RD08_1_rdsq_out_with_VS      10.43      37.34       0.00      10.14       0.00       0.00       4.98        0.01     0.00   0.104
  RD08_10_rdsq_out_no       10.43       0.00       0.00       0.00      10.21       0.00      10.21        0.02     0.01   0.980
  RD08_10_rdsq_out_with_PP      10.43     206.34       0.00       0.00     206.48       0.00     206.48        0.02     0.01   0.953
  RD08_10_rdsq_out_with_VS      10.43      37.46       0.00      10.17       0.00      37.46      38.04        0.02     0.01   0.794
  RD08_11_rdsq_out_no       10.43       0.00       0.00       0.00      10.22       0.00      10.22        0.01     0.01   0.980
  RD08_11_rdsq_out_with_PP      10.43     208.17       0.00       0.59       0.00       0.00      80.39        0.00     0.00   0.368
  RD08_11_rdsq_out_with_VS      10.43      14.34       0.00       9.94       0.00      14.34      14.35        0.00     0.00   0.580
  RD08_12_rdsq_out_no       10.43       0.00       0.00       0.00      10.23       0.00      10.23        0.01     0.01   0.981
  RD08_12_rdsq_out_with_PP      10.43     207.78       0.00       0.59       0.00       0.00      80.02        0.01     0.00   0.367
  RD08_12_rdsq_out_with_VS      10.43      14.32       0.00       9.94       0.00      14.32      14.34        0.01     0.00   0.579
  RD08_13_rdsq_out_no       10.43       0.00       0.00       0.00      10.22       0.00      10.22        0.01     0.01   0.980
  RD08_13_rdsq_out_with_PP      10.43     208.58       0.00       0.59       0.00       0.00      80.80        0.01     0.00   0.369
  RD08_13_rdsq_out_with_VS      10.43      14.42       0.00       9.98       0.00       0.00       2.33        0.00     0.00   0.094
  RD08_14_rdsq_out_no       10.43       0.00       0.00       0.00      10.23       0.00      10.23        0.02     0.01   0.981
  RD08_14_rdsq_out_with_PP      10.43     206.33       0.00       0.00     206.50       0.00     206.50        0.01     0.01   0.953
  RD08_14_rdsq_out_with_VS      10.43      37.51       0.00      10.17       0.00      37.51      38.19        0.01     0.01   0.797
  RD08_15_rdsq_out_no       10.43       0.00       0.00       0.00      10.25       0.00      10.25        0.01     0.01   0.983
  RD08_15_rdsq_out_with_PP      10.43     207.21       0.00       0.00     207.41       0.00     207.41        0.01     0.01   0.953
  RD08_15_rdsq_out_with_VS      10.43      37.67       0.00      10.15       0.00       0.00      13.14        0.00     0.00   0.273
  RD08_16_rdsq_out_no       10.43       0.00       0.00       0.00      10.23       0.00      10.23        0.02     0.01   0.982
  RD08_16_rdsq_out_with_PP      10.43     206.74       0.00       0.00     206.90       0.00     206.90        0.02     0.01   0.953
  RD08_16_rdsq_out_with_VS      10.43      37.54       0.00      10.17       0.00      37.54      38.17        0.02     0.01   0.796
  RD08_2_rdsq_out_no        10.43       0.00       0.00       0.00      10.16       0.00      10.16        0.04     0.02   0.975
  RD08_2_rdsq_out_with_PP      10.43     205.40       0.00       0.00     205.46       0.00     205.46        0.04     0.02   0.952
  RD08_2_rdsq_out_with_VS      10.43      37.28       0.00      10.14       0.00       0.00       4.92        0.01     0.00   0.103
  RD08_3_rdsq_out_no        10.43       0.00       0.00       0.00      10.12       0.00      10.12        0.15     0.08   0.970
  RD08_3_rdsq_out_with_PP      10.43     204.80       0.00       0.00     181.97       0.00     181.97        0.13     0.04   0.845
  RD08_3_rdsq_out_with_VS      10.43      32.87       0.00      10.14       0.00       0.00       1.22        0.00     0.00   0.028
  RD08_4_rdsq_out_no        10.43       0.00       0.00       0.00      10.20       0.00      10.20        0.02     0.01   0.979
  RD08_4_rdsq_out_with_PP      10.43     206.87       0.00       0.59       0.00       0.00      79.11        0.01     0.01   0.364
  RD08_4_rdsq_out_with_VS      10.43      14.19       0.00       9.94       0.00      14.19      14.20        0.01     0.01   0.577
  RD08_5_rdsq_out_no        10.43       0.00       0.00       0.00      10.21       0.00      10.21        0.02     0.01   0.979
  RD08_5_rdsq_out_with_PP      10.43     207.40       0.00       0.59       0.00       0.00      79.63        0.01     0.01   0.366
  RD08_5_rdsq_out_with_VS      10.43      14.26       0.00       9.98       0.00       0.00       1.32        0.00     0.00   0.053
  RD08_6_rdsq_out_no        10.43       0.00       0.00       0.00      10.19       0.00      10.19        0.04     0.02   0.978
  RD08_6_rdsq_out_with_PP      10.43     206.59       0.00       0.59       0.00       0.00      78.83        0.02     0.01   0.363
  RD08_6_rdsq_out_with_VS      10.43      14.14       0.00       9.98       0.00       0.00       0.78        0.00     0.00   0.032
  RD08_7_rdsq_out_no        10.43       0.00       0.00       0.00      10.23       0.00      10.23        0.02     0.01   0.981
  RD08_7_rdsq_out_with_PP      10.43     207.53       0.00       0.59       0.00       0.00      79.77        0.01     0.01   0.366
  RD08_7_rdsq_out_with_VS      10.43      14.30       0.00       9.94       0.00      14.30      14.31        0.01     0.01   0.579
  RD08_8_rdsq_out_no        10.43       0.00       0.00       0.00      10.22       0.00      10.22        0.02     0.01   0.980
  RD08_8_rdsq_out_with_PP      10.43     206.88       0.00       0.00     206.99       0.00     206.99        0.02     0.01   0.953
  RD08_8_rdsq_out_with_VS      10.43      37.53       0.00      10.15       0.00       0.00       8.47        0.01     0.00   0.177
  RD08_9_rdsq_out_no        10.43       0.00       0.00       0.00      10.21       0.00      10.21        0.02     0.01   0.979
  RD08_9_rdsq_out_with_PP      10.43     206.05       0.00       0.00     206.21       0.00     206.21        0.02     0.01   0.953
  RD08_9_rdsq_out_with_VS      10.43      37.45       0.00      10.17       0.00      37.45      38.08        0.02     0.01   0.795
  RD09_1_rdsq_out_no        10.43       0.00       0.00       0.00      10.22       0.00      10.22        0.02     0.01   0.980
  RD09_1_rdsq_out_with_PP      10.43     206.72       0.00       0.00     206.84       0.00     206.84        0.02     0.01   0.953
  RD09_1_rdsq_out_with_VS      10.43      37.49       0.00      10.17       0.00      37.49      37.92        0.02     0.01   0.791
  RD09_10_rdsq_out_no       10.43       0.00       0.00       0.00      10.22       0.00      10.22        0.02     0.01   0.980
  RD09_10_rdsq_out_with_PP      10.43     207.12       0.00       0.59       0.00       0.00      79.37        0.01     0.00   0.365
  RD09_10_rdsq_out_with_VS      10.43      14.26       0.00       9.98       0.00       0.00       1.85        0.00     0.00   0.075
  RD09_11_rdsq_out_no       10.43       0.00       0.00       0.00      10.20       0.00      10.20        0.03     0.02   0.979
  RD09_11_rdsq_out_with_PP      10.43     207.06       0.00       0.59       0.00       0.00      79.29        0.01     0.01   0.365
  RD09_11_rdsq_out_with_VS      10.43      14.21       0.00       9.98       0.00       0.00       1.03        0.00     0.00   0.042
  RD09_12_rdsq_out_no       10.43       0.00       0.00       0.00      10.21       0.00      10.21        0.03     0.02   0.979
  RD09_12_rdsq_out_with_PP      10.43     206.16       0.00       0.00     206.26       0.00     206.26        0.03     0.02   0.952
  RD09_12_rdsq_out_with_VS      10.43      37.47       0.00      10.17       0.00      37.47      37.82        0.03     0.02   0.790
  RD09_2_rdsq_out_no        10.43       0.00       0.00       0.00      10.21       0.00      10.21        0.03     0.02   0.979
  RD09_2_rdsq_out_with_PP      10.43     206.72       0.00       0.00     206.83       0.00     206.83        0.03     0.02   0.952
  RD09_2_rdsq_out_with_VS      10.43      37.44       0.00      10.17       0.00      37.43      37.82        0.03     0.02   0.790
  RD09_3_rdsq_out_no        10.43       0.00       0.00       0.00      10.23       0.00      10.23        0.03     0.02   0.981
  RD09_3_rdsq_out_with_PP      10.43     207.75       0.00       0.59       0.00       0.00      79.99        0.01     0.01   0.367
  RD09_3_rdsq_out_with_VS      10.43      14.34       0.00       9.98       0.00       0.00       1.08        0.00     0.00   0.044
  RD09_4_rdsq_out_no        10.43       0.00       0.00       0.00      10.22       0.00      10.22        0.03     0.02   0.980
  RD09_4_rdsq_out_with_PP      10.43     206.94       0.00       0.00     207.03       0.00     207.03        0.03     0.02   0.952
  RD09_4_rdsq_out_with_VS      10.43      37.51       0.00      10.16       0.00       0.00       6.20        0.01     0.00   0.129
  RD09_5_rdsq_out_no        10.43       0.00       0.00       0.00      10.17       0.00      10.17        0.06     0.03   0.976
  RD09_5_rdsq_out_with_PP      10.43     206.30       0.00       0.59       0.00       0.00      78.52        0.02     0.02   0.362
  RD09_5_rdsq_out_with_VS      10.43      14.08       0.00       9.98       0.00       0.00       0.53        0.00     0.00   0.022
  RD09_6_rdsq_out_no        10.43       0.00       0.00       0.00      10.18       0.00      10.18        0.06     0.03   0.976
  RD09_6_rdsq_out_with_PP      10.43     205.90       0.00       0.00     205.95       0.00     205.95        0.06     0.03   0.952
  RD09_6_rdsq_out_with_VS      10.43      37.34       0.00      10.15       0.00       0.00       3.54        0.01     0.00   0.074
  RD09_7_rdsq_out_no        10.43       0.00       0.00       0.00      10.24       0.00      10.24        0.02     0.01   0.982
  RD09_7_rdsq_out_with_PP      10.43     207.02       0.00       0.00     207.17       0.00     207.17        0.02     0.01   0.953
  RD09_7_rdsq_out_with_VS      10.43      37.58       0.00      10.17       0.00      37.58      38.09        0.02     0.01   0.793
  RD09_8_rdsq_out_no        10.43       0.00       0.00       0.00      10.21       0.00      10.21        0.02     0.01   0.980
  RD09_8_rdsq_out_with_PP      10.43     207.56       0.00       0.59       0.00       0.00      79.79        0.01     0.00   0.366
  RD09_8_rdsq_out_with_VS      10.43      14.28       0.00       9.94       0.00      14.28      14.29        0.01     0.00   0.578
  RD09_9_rdsq_out_no        10.43       0.00       0.00       0.00      10.23       0.00      10.23        0.02     0.01   0.981
  RD09_9_rdsq_out_with_PP      10.43     207.05       0.00       0.00     207.20       0.00     207.20        0.02     0.01   0.953
  RD09_9_rdsq_out_with_VS      10.43      37.59       0.00      10.15       0.00       0.00      10.90        0.00     0.00   0.227
  S01_10_green_no           10.43       0.00       0.00      10.43       0.00       0.00       0.00        0.00     0.00   0.000
  S01_10_green_with_BR      10.43       0.00       0.00       0.00       0.00       0.00       0.00        0.00     0.00   0.000
  S01_10_green_with_VS      10.43       0.00       0.00      10.42       0.00       0.00       0.00        0.00     0.00   0.000
  S01_10_roof_no            10.43       0.00       0.00       0.00       9.59       0.00       9.59        0.07     0.03   0.920
  S01_10_roof_with_GR       10.43      34.47       0.00       0.00       0.00       0.00       0.00        0.00     0.00   0.000
  S01_10_rdsq_in_no_PP      10.43       0.00       0.00       0.00      10.03       0.00      10.03        0.04     0.02   0.962
  S01_10_rdsq_in_with_PP      10.43       5.31       0.00       0.00       0.00       0.00       0.00        0.00     0.00   0.000
  S01_10_rdsq_out_no_PP      10.43       0.00       0.00       0.00      10.24       0.00      10.24        0.02     0.01   0.982
  S01_10_rdsq_out_with_PP      10.43       5.43       0.00       0.00       0.00       0.00       0.00        0.00     0.00   0.000
  S01_12_green_no           10.43       0.00       0.00      10.43       0.00       0.00       0.00        0.00     0.00   0.000
  S01_12_green_with_BR      10.43       0.00       0.00       0.00       0.00       0.00       0.00        0.00     0.00   0.000
  S01_12_green_with_VS      10.43       0.00       0.00      10.42       0.00       0.00       0.00        0.00     0.00   0.000
  S01_12_roof_no            10.43       0.00       0.00       0.00       9.43       0.00       9.43        0.14     0.06   0.904
  S01_12_roof_with_GR       10.43      33.85       0.00       0.00       0.00       0.00       0.00        0.00     0.00   0.000
  S01_12_rdsq_in_no_PP      10.43       0.00       0.00       0.00       9.86       0.00       9.86        0.10     0.05   0.946
  S01_12_rdsq_in_with_PP      10.43       5.22       0.00       0.00       0.00       0.00       0.00        0.00     0.00   0.000
  S01_13_green_no           10.43       0.00       0.00      10.43       0.00       0.00       0.00        0.00     0.00   0.000
  S01_13_green_with_BR      10.43       0.00       0.00       0.00       0.00       0.00       0.00        0.00     0.00   0.000
  S01_13_green_with_VS      10.43       0.00       0.00      10.42       0.00       0.00       0.00        0.00     0.00   0.000
  S01_13_roof_no            10.43       0.00       0.00       0.00       9.41       0.00       9.41        0.14     0.06   0.903
  S01_13_roof_with_GR       10.43      33.78       0.00       0.00       0.00       0.00       0.00        0.00     0.00   0.000
  S01_13_rdsq_in_no_PP      10.43       0.00       0.00       0.00       9.79       0.00       9.79        0.07     0.03   0.939
  S01_13_rdsq_in_with_PP      10.43       5.18       0.00       0.00       0.00       0.00       0.00        0.00     0.00   0.000
  S01_13_rdsq_out_no_PP      10.43       0.00       0.00       0.00      10.20       0.00      10.20        0.02     0.01   0.979
  S01_13_rdsq_out_with_PP      10.43       5.41       0.00       0.00       0.00       0.00       0.00        0.00     0.00   0.000
  S01_14_green_no           10.43       0.00       0.00      10.43       0.00       0.00       0.00        0.00     0.00   0.000
  S01_14_green_with_BR      10.43       0.00       0.00       0.00       0.00       0.00       0.00        0.00     0.00   0.000
  S01_14_green_with_VS      10.43       0.00       0.00      10.42       0.00       0.00       0.00        0.00     0.00   0.000
  S01_14_roof_no            10.43       0.00       0.00       0.00       9.53       0.00       9.53        0.09     0.04   0.914
  S01_14_roof_with_GR       10.43      34.25       0.00       0.00       0.00       0.00       0.00        0.00     0.00   0.000
  S01_14_rdsq_in_no_PP      10.43       0.00       0.00       0.00       9.97       0.00       9.97        0.05     0.03   0.956
  S01_14_rdsq_in_with_PP      10.43       5.28       0.00       0.00       0.00       0.00       0.00        0.00     0.00   0.000
  S01_15_green_no           10.43       0.00       0.00      10.43       0.00       0.00       0.00        0.00     0.00   0.000
  S01_15_green_with_BR      10.43       0.00       0.00       0.00       0.00       0.00       0.00        0.00     0.00   0.000
  S01_15_green_with_VS      10.43       0.00       0.00      10.35       0.00       0.00       0.01        0.00     0.00   0.001
  S01_15_roof_no            10.43       0.00       0.00       0.00       9.61       0.00       9.61        0.06     0.03   0.922
  S01_15_roof_with_GR       10.43      34.58       0.00       0.00       0.00       0.00       0.00        0.00     0.00   0.000
  S01_15_rdsq_in_no_PP      10.43       0.00       0.00       0.00      10.06       0.00      10.06        0.02     0.01   0.965
  S01_15_rdsq_in_with_PP      10.43       5.33       0.00       0.00       0.00       0.00       0.00        0.00     0.00   0.000
  S01_15_rdsq_out_no_PP      10.43       0.00       0.00       0.00      10.25       0.00      10.25        0.01     0.01   0.983
  S01_15_rdsq_out_with_PP      10.43       5.43       0.00       0.00       0.00       0.00       0.00        0.00     0.00   0.000
  S01_3_green_no            10.43       0.00       0.00      10.43       0.00       0.00       0.00        0.00     0.00   0.000
  S01_3_green_with_BR       10.43       0.00       0.00       0.00       0.00       0.00       0.00        0.00     0.00   0.000
  S01_3_green_with_VS       10.43       0.00       0.00      10.42       0.00       0.00       0.00        0.00     0.00   0.000
  S01_3_rdsq_in             10.43       0.00       0.00       0.00       9.68       0.00       9.68        0.17     0.07   0.929
  S01_4_green_no            10.43       0.00       0.00      10.43       0.00       0.00       0.00        0.00     0.00   0.000
  S01_4_green_with_BR       10.43       0.00       0.00       0.00       0.00       0.00       0.00        0.00     0.00   0.000
  S01_4_green_with_VS       10.43       0.00       0.00      10.42       0.00       0.00       0.00        0.00     0.00   0.000
  S01_4_roof_no             10.43       0.00       0.00       0.00       9.42       0.00       9.42        0.14     0.06   0.904
  S01_4_roof_with_GR        10.43      33.83       0.00       0.00       0.00       0.00       0.00        0.00     0.00   0.000
  S01_4_rdsq_in_no_PP       10.43       0.00       0.00       0.00       9.90       0.00       9.90        0.09     0.04   0.950
  S01_4_rdsq_in_with_PP      10.43       5.24       0.00       0.00       0.00       0.00       0.00        0.00     0.00   0.000
  S01_5_green_no            10.43       0.00       0.00      10.43       0.00       0.00       0.00        0.00     0.00   0.000
  S01_5_green_with_BR       10.43      24.87       0.00       0.00       0.00       0.00       0.00        0.00     0.00   0.000
  S01_5_green_with_VS       10.43       0.00       0.00      10.42       0.00       0.00       0.00        0.00     0.00   0.000
  S01_5_roof_no             10.43       0.00       0.00       0.00       9.73       0.00       9.73        0.03     0.02   0.934
  S01_5_roof_with_GR        10.43      35.02       0.00       0.00      35.04       0.00      35.04        0.03     0.02   0.771
  S01_5_rdsq_in_no_PP       10.43       0.00       0.00       0.00      10.05       0.00      10.05        0.02     0.01   0.964
  S01_5_rdsq_in_with_PP      10.43       5.33       0.00       0.00       0.00       0.00       0.00        0.00     0.00   0.000
  S01_6_green_no            10.43       0.02       0.00      10.44       0.00       0.00       0.00        0.00     0.00   0.000
  S01_6_green_with_BR       10.43       2.48       0.00       0.00       0.00       0.00       0.00        0.00     0.00   0.000
  S01_6_green_with_VS       10.43       2.50       0.00      11.28       0.00       0.00       0.25        0.00     0.00   0.019
  S01_6_roof_no             10.43       0.00       0.00       0.00       9.91       0.00       9.91        0.01     0.00   0.951
  S01_6_roof_with_GR        10.43      35.70       0.00       0.00      35.74       0.00      35.74        0.01     0.00   0.775
  S01_6_rdsq_in_no_PP       10.43       0.00       0.00       0.00      10.05       0.00      10.05        0.03     0.01   0.964
  S01_6_rdsq_in_with_PP      10.43       5.33       0.00       0.00       0.00       0.00       0.00        0.00     0.00   0.000
  S01_6_rdsq_out_no_PP      10.43       0.00       0.00       0.00      10.27       0.00      10.27        0.00     0.00   0.985
  S01_6_rdsq_out_with_PP      10.43       5.45       0.00       0.00       5.47       0.00       5.47        0.00     0.00   0.345
  S01_7_green_no            10.43       3.49       0.00      11.25       0.00       0.00       0.00        0.00     0.00   0.000
  S01_7_green_with_BR       10.43      13.55       0.00       0.01       0.00      13.55      13.55        0.01     0.01   0.565
  S01_7_green_with_VS       10.43      47.15       0.00      11.29       0.00       0.00      40.79        0.01     0.00   0.708
  S01_7_roof_no             10.43       0.00       0.00       0.00       9.87       0.00       9.87        0.01     0.01   0.947
  S01_7_roof_with_GR        10.43      35.52       0.00       0.00      35.54       0.00      35.54        0.01     0.01   0.774
  S01_7_rdsq_in_no_PP       10.43       0.00       0.00       0.00      10.13       0.00      10.13        0.01     0.01   0.971
  S01_7_rdsq_in_with_PP      10.43       5.37       0.00       0.00       0.00       0.00       0.00        0.00     0.00   0.000
  S01_8_green_no            10.43       0.00       0.00      10.43       0.00       0.00       0.00        0.00     0.00   0.000
  S01_8_green_with_BR       10.43      17.98       0.00       0.00       0.00       0.00       0.00        0.00     0.00   0.000
  S01_8_green_with_VS       10.43       0.00       0.00      10.32       0.00       0.00       0.02        0.00     0.00   0.001
  S01_8_roof_no             10.43       0.00       0.00       0.00       9.83       0.00       9.83        0.02     0.01   0.943
  S01_8_roof_with_GR        10.43      35.41       0.00       0.00      35.43       0.00      35.43        0.02     0.01   0.773
  S01_8_rdsq_in_no_PP       10.43       0.00       0.00       0.00      10.11       0.00      10.11        0.02     0.01   0.969
  S01_8_rdsq_in_with_PP      10.43       5.36       0.00       0.00       0.00       0.00       0.00        0.00     0.00   0.000
  S01_9_green_no            10.43       0.00       0.00      10.43       0.00       0.00       0.00        0.00     0.00   0.000
  S01_9_green_with_BR       10.43       0.00       0.00       0.00       0.00       0.00       0.00        0.00     0.00   0.000
  S01_9_green_with_VS       10.43       0.00       0.00      10.41       0.00       0.00       0.00        0.00     0.00   0.000
  S01_9_roof_no             10.43       0.00       0.00       0.00       9.54       0.00       9.54        0.09     0.04   0.915
  S01_9_roof_with_GR        10.43      34.31       0.00       0.00       0.00       0.00       0.00        0.00     0.00   0.000
  S01_9_rdsq_in_no_PP       10.43       0.00       0.00       0.00       9.89       0.00       9.89        0.05     0.03   0.949
  S01_9_rdsq_in_with_PP      10.43       5.24       0.00       0.00       0.00       0.00       0.00        0.00     0.00   0.000
  S01_9_rdsq_out_no_PP      10.43       0.00       0.00       0.00      10.22       0.00      10.22        0.02     0.01   0.980
  S01_9_rdsq_out_with_PP      10.43       5.42       0.00       0.00       0.00       0.00       0.00        0.00     0.00   0.000
  S02_1_green_no            10.43       0.00       0.00      10.43       0.00       0.00       0.00        0.00     0.00   0.000
  S02_1_green_with_BR       10.43       0.00       0.00       0.00       0.00       0.00       0.00        0.00     0.00   0.000
  S02_1_green_with_VS       10.43       0.00       0.00      10.42       0.00       0.00       0.00        0.00     0.00   0.000
  S02_1_roof_no             10.43       0.00       0.00       0.00       9.82       0.00       9.82        0.02     0.01   0.942
  S02_1_roof_with_GR        10.43      35.37       0.00       0.00       0.00       0.00       0.00        0.00     0.00   0.000
  S02_1_rdsq_in_no_PP       10.43       0.00       0.00       0.00      10.02       0.00      10.02        0.06     0.03   0.961
[...]
  L154                         0.137         0.005         0.001         0.001
  L155                         0.005         0.000         0.000         0.000
  L156                         0.001         0.000         0.000         0.000
  L157                         0.061         0.002         0.000         0.000
  L158                         0.000         0.000         0.000         0.000
  L159                         0.127         0.004         0.001         0.001
  L160                         0.743         0.025         0.005         0.004
  L161                         0.000         0.000         0.000         0.000
  L162                         0.121         0.004         0.001         0.001
  L163                         0.002         0.000         0.000         0.000
  L164                         0.000         0.000         0.000         0.000
  L165                         1.089         0.035         0.008         0.006
  L166                         0.000         0.000         0.000         0.000
  L167                         1.012         0.035         0.007         0.006
  L168                         1.001         0.033         0.007         0.006
  L169                         0.094         0.003         0.001         0.000
  L170                         0.082         0.003         0.001         0.000
  L171                         1.170         0.039         0.008         0.007
  L172                         0.051         0.002         0.000         0.000
  L173                         0.131         0.004         0.001         0.001
  L174                         0.886         0.030         0.006         0.005
  L175                         0.129         0.004         0.001         0.001
  L176                         0.851         0.028         0.006         0.005
  L177                         0.065         0.002         0.000         0.000
  L178                         0.559         0.018         0.004         0.003
  L179                         1.245         0.039         0.014         0.007
  L180                        13.798         0.361         0.128         0.063
  L181                        15.546         0.421         0.151         0.074
  L182                         0.065         0.002         0.000         0.000
  L184                         0.111         0.004         0.001         0.001
  L185                         0.759         0.026         0.005         0.004
  L186                         1.968         0.065         0.022         0.011
  L194                         0.000         0.000         0.000         0.000
  L198                         0.644         0.015         0.006         0.003
  L199                         4.369         0.105         0.039         0.019
  L200                         2.478         0.122         0.053         0.052
  L201                        12.976         0.347         0.118         0.061
  L202                         0.985         0.034         0.007         0.006
  L203                         6.045         0.164         0.056         0.028
  L204                         2.438         0.079         0.028         0.014
  L205                         1.154         0.037         0.013         0.006
  L206                         1.190         0.038         0.013         0.007
  L207                         0.095         0.003         0.001         0.001
  L208                         0.928         0.021         0.008         0.004
  L209                         3.570         0.094         0.034         0.017
  L210                         0.326         0.007         0.003         0.001
  L211                         0.001         0.000         0.000         0.000
  L217                         1.549         0.050         0.011         0.009
  L218                         1.873         0.063         0.013         0.011
  L219                         0.930         0.032         0.007         0.005
  L220                         0.000         0.000         0.000         0.000
  L222                         0.000         0.000         0.000         0.000
  L223                         7.575         0.201         0.070         0.035
  L224                         0.969         0.032         0.007         0.005
  L225                         2.185         0.069         0.024         0.012
  L226                         7.894         0.205         0.071         0.036
  L228                         0.000         0.000         0.000         0.000
  L229                         0.000         0.000         0.000         0.000
  L230                         1.881         0.058         0.022         0.010
  L231                         0.000         0.000         0.000         0.000
  L234                         0.169         0.009         0.002         0.001
  L235                         0.146         0.007         0.001         0.001
  L252                         0.000         0.000         0.000         0.000
  L254                         1.417         0.041         0.011         0.007
  L255                         0.130         0.004         0.001         0.001
  L256                         0.037         0.001         0.000         0.000
  L257                         2.671         0.065         0.024         0.012
  L258                         8.277         0.215         0.078         0.038
  L259                         8.152         0.212         0.076         0.037
  L260                         8.900         0.239         0.083         0.042
  L261                         1.079         0.038         0.008         0.006
  L262                         0.272         0.009         0.002         0.002
  L263                         0.003         0.000         0.000         0.000
  L267                        12.868         0.340         0.117         0.060
  L268                        11.490         0.303         0.106         0.053
  L269                        11.799         0.312         0.108         0.055
  L270                         0.816         0.026         0.006         0.005
  L271                         1.328         0.044         0.010         0.007
  L272                         0.899         0.029         0.006         0.005
  L273                         1.070         0.036         0.008         0.006
  L274                         0.060         0.002         0.000         0.000
  L275                         0.506         0.017         0.004         0.003
  L277                        25.673         0.665         0.245         0.118
  L278                        25.364         0.663         0.238         0.118
  L279                        16.195         0.445         0.152         0.078
  L280                        20.043         0.560         0.195         0.098
  L281                        12.157         0.314         0.112         0.056
  L282                         0.779         0.026         0.006         0.004
  L283                        13.785         0.358         0.127         0.063
  L284                         8.933         0.228         0.083         0.040
  L285                        10.536         0.281         0.098         0.049
  L286                         7.171         0.194         0.065         0.034
  L287                         7.214         0.195         0.065         0.034
  L288                         6.584         0.171         0.061         0.030
  L289                         6.955         0.178         0.064         0.031
  L290                         4.608         0.116         0.044         0.021
  L291                         0.011         0.000         0.000         0.000
  L292                         0.410         0.013         0.003         0.002
  L293                         0.021         0.001         0.000         0.000
  L297                         0.000         0.000         0.000         0.000
  L298                        19.025         0.496         0.177         0.087
  L299                         0.000         0.000         0.000         0.000
  L301                         5.145         0.170         0.055         0.029
  L303                         0.000         0.000         0.000         0.000
  L304                         0.000         0.000         0.000         0.000
  L305                         8.540         0.605         0.113         0.037
  L307                         0.000         0.000         0.000         0.000
  L308                        11.132         0.661         0.149         0.057
  L309                         0.000         0.000         0.000         0.000
  L310                        10.011         0.330         0.129         0.083
  L311                        12.450         0.306         0.113         0.055
  L312                         9.292         0.236         0.088         0.042
  L313                         6.854         0.478         0.102         0.032
  L314                         0.846         0.035         0.007         0.005
  L315                         2.696         0.094         0.028         0.015
  L316                        11.569         0.341         0.139         0.090
  L317                         1.089         0.035         0.008         0.006
  L318                         7.625         0.213         0.078         0.038
  L319                         7.478         0.218         0.077         0.038
  L320                         0.000         0.000         0.000         0.000
  L321                         0.000         0.000         0.000         0.000
  L322                         0.120         0.004         0.001         0.001
  L323                         2.230         0.071         0.025         0.012
  L324                         0.480         0.016         0.003         0.003
  L325                         0.427         0.014         0.003         0.002
  L326                         2.587         0.147         0.030         0.014
  L327                         1.199         0.057         0.012         0.006
  L328                         0.966         0.033         0.007         0.006
  L329                         0.495         0.015         0.004         0.003
  L330                         0.973         0.033         0.007         0.006
  L331                         0.089         0.003         0.001         0.001
  L332                         1.140         0.039         0.008         0.007
  L333                         0.134         0.004         0.001         0.001
  L334                         0.141         0.005         0.001         0.001
  L335                         0.125         0.004         0.001         0.001
  L336                         1.849         0.109         0.057         0.056
  L337                         1.891         0.108         0.056         0.055
  L338                         1.955         0.114         0.057         0.057
  L340                         0.577         0.038         0.008         0.003
  L341                         0.144         0.005         0.001         0.001
  L342                         0.133         0.004         0.001         0.001
  L343                         0.112         0.004         0.001         0.001
  L344                         1.109         0.037         0.008         0.006
  L345                         8.332         0.587         0.109         0.035
  L346                         1.094         0.037         0.008         0.006
  L347                         0.432         0.014         0.003         0.002
  L348                         8.649         0.223         0.081         0.039
  L349                         0.045         0.001         0.000         0.000
  L350                         0.985         0.022         0.009         0.004
  L351                         2.335         0.077         0.026         0.013
  L352                         7.564         0.199         0.070         0.035
  L353                         8.051         0.213         0.075         0.037
  L354                         5.254         0.171         0.059         0.030
  L355                         1.050         0.046         0.010         0.006
  L356                         9.264         0.233         0.085         0.041
  L357                         0.102         0.003         0.001         0.001
  L358                         0.069         0.002         0.001         0.000
  L359                         0.008         0.000         0.000         0.000
  L361                         7.885         0.208         0.073         0.037
  L362                         3.002         0.097         0.034         0.017
  L363                         0.132         0.004         0.001         0.001
  L364                        13.914         0.375         0.125         0.066
  L365                         0.033         0.001         0.000         0.000
  L366                         3.293         0.108         0.037         0.019
  L367                         0.133         0.004         0.001         0.001
  L368                         0.000         0.000         0.000         0.000
  L369                         0.135         0.004         0.001         0.001
  L370                         0.000         0.000         0.000         0.000
  L371                         0.000         0.000         0.000         0.000
  L372                         1.753         0.104         0.055         0.054
  L373                         0.128         0.004         0.001         0.001
  L374                         1.043         0.034         0.008         0.006
  L378                         0.095         0.008         0.002         0.001
  L379                         0.134         0.005         0.001         0.001
  L380                         2.476         0.082         0.028         0.014
  L381                         0.000         0.000         0.000         0.000
  L382                         2.309         0.172         0.038         0.013
  L383                         0.000         0.000         0.000         0.000
  L384                         0.000         0.000         0.000         0.000
  L385                         2.913         0.166         0.034         0.014
  L386                         9.086         0.300         0.095         0.046
  L387                        10.351         0.261         0.094         0.046
  L388                         2.392         0.079         0.027         0.014
  L389                        11.508         0.301         0.107         0.053
  L390                        13.349         0.354         0.124         0.062
  L391                         7.381         0.199         0.070         0.034
  L392                         2.582         0.086         0.029         0.015
  L393                         0.610         0.021         0.004         0.004
  L394                        16.280         0.412         0.156         0.074
  L395                        12.222         0.313         0.112         0.056
  L396                         0.056         0.002         0.000         0.000
  L397                         0.000         0.000         0.000         0.000
  L398                         0.000         0.000         0.000         0.000
  L399                         0.000         0.000         0.000         0.000
  L400                         1.844         0.062         0.013         0.011
  L401                         3.420         0.173         0.035         0.019
  L402                         0.000         0.000         0.000         0.000
  L403                         0.600         0.020         0.004         0.003
  L405                         0.000         0.000         0.000         0.000
  L406                         0.000         0.000         0.000         0.000
  L407                         0.300         0.011         0.002         0.002
  L408                         1.625         0.053         0.012         0.009
  L409                         0.841         0.026         0.006         0.004
  L410                         2.222         0.165         0.039         0.013
  L411                         0.000         0.000         0.000         0.000
  L412                         0.135         0.004         0.001         0.001
  L413                         0.000         0.000         0.000         0.000
  L414                         1.126         0.037         0.008         0.006
  L415                         0.026         0.001         0.000         0.000
  L416                         8.549         0.231         0.084         0.050
  L417                         2.095         0.061         0.015         0.011
  L418                         0.128         0.004         0.001         0.001
  L419                         0.056         0.004         0.001         0.000
  L420                         0.000         0.000         0.000         0.000
  L421                         0.003         0.000         0.000         0.000
  L422                         2.021         0.063         0.023         0.011
  L423                         0.000         0.000         0.000         0.000
  L424                         0.000         0.000         0.000         0.000
  L425                         5.149         0.349         0.073         0.025
  L426                         7.088         0.511         0.104         0.033
  L427                         0.000         0.000         0.000         0.000
  L428                         5.412         0.170         0.067         0.040
  L429                         1.369         0.045         0.015         0.008
  L430                         1.343         0.044         0.015         0.008
  L431                         5.168         0.307         0.067         0.027
  L432                         0.090         0.003         0.001         0.001
  L434                         1.684         0.054         0.019         0.009
  L435                         0.019         0.001         0.000         0.000
  L437                        14.057         0.359         0.127         0.064
  L439                        11.815         0.305         0.110         0.054
  L440                         0.000         0.000         0.000         0.000
  L441                         1.245         0.046         0.010         0.007
  L442                         0.977         0.034         0.007         0.006
  L443                         8.500         0.238         0.082         0.042
  L448                        10.856         0.285         0.101         0.050
  L449                         0.966         0.030         0.008         0.005
  L450                         0.911         0.031         0.007         0.005
  L451                         0.963         0.033         0.007         0.006
  L452                        12.990         0.351         0.119         0.061
  L453                         0.092         0.008         0.001         0.001
  L454                         0.130         0.011         0.002         0.001
  L457                         0.000         0.000         0.000         0.000
  L458                         0.000         0.000         0.000         0.000
  L464                        27.187         1.612         0.853         0.844
  L466                        24.638         1.341         0.696         0.686
  L462                         0.854         0.029         0.006         0.005
  L461                         0.027         0.001         0.000         0.000
  L463                         1.065         0.027         0.007         0.005
  L465                        10.112         0.378         0.168         0.152
  L459                         0.000         0.000         0.000         0.000
  L460                         0.000         0.000         0.000         0.000
  

  Analysis begun on:  Thu Dec 23 15:56:57 2021
  Analysis ended on:  Thu Dec 23 15:57:03 2021
  Total elapsed time: 00:00:06