
  EPA STORM WATER MANAGEMENT MODEL - VERSION 5.1 (Build 5.1.013)
  --------------------------------------------------------------

  骞虫睙鏂板煄 
  
  
  *********************
  Rainfall File Summary
  *********************
  Station    First        Last         Recording   Periods    Periods    Periods
  ID         Date         Date         Frequency  w/Precip    Missing    Malfunc.
  -------------------------------------------------------------------------------
  1          01/01/2018   01/01/2018       5 min        24          0          0

  
  *********************************************************
  NOTE: The summary statistics displayed in this report are
  based on results found at every computational time step,  
  not just on results from each reporting time step.
  *********************************************************
  
  ****************
  Analysis Options
  ****************
  Flow Units ............... CMS
  Process Models:
    Rainfall/Runoff ........ YES
    RDII ................... NO
    Snowmelt ............... NO
    Groundwater ............ NO
    Flow Routing ........... YES
    Ponding Allowed ........ YES
    Water Quality .......... YES
  Infiltration Method ...... HORTON
  Flow Routing Method ...... DYNWAVE
  Surcharge Method ......... EXTRAN
  Starting Date ............ 01/01/2018 00:00:00
  Ending Date .............. 01/01/2018 02:00:00
  Antecedent Dry Days ...... 14.0
  Report Time Step ......... 00:05:00
  Wet Time Step ............ 00:05:00
  Dry Time Step ............ 06:00:00
  Routing Time Step ........ 30.00 sec
  Variable Time Step ....... YES
  Maximum Trials ........... 10
  Number of Threads ........ 4
  Head Tolerance ........... 0.001500 m
  
  
  **************************        Volume         Depth
  Runoff Quantity Continuity     hectare-m            mm
  **************************     ---------       -------
  Initial LID Storage ......         2.375         4.752
  Total Precipitation ......         4.814         9.632
  Evaporation Loss .........         0.000         0.000
  Infiltration Loss ........         1.491         2.983
  Surface Runoff ...........         0.184         0.367
  Final Storage ............         5.417        10.839
  Continuity Error (%) .....         1.350
  
  
  **************************           COD            TN         NH4-N            TP
  Runoff Quality Continuity             kg            kg            kg            kg
  **************************    ----------    ----------    ----------    ----------
  Initial Buildup ..........     30322.891      2148.702       636.762       242.652
  Surface Buildup ..........         0.759         0.644         0.007         0.022
  Wet Deposition ...........         0.000         0.000         0.000         0.000
  Sweeping Removal .........         0.000         0.000         0.000         0.000
  Infiltration Loss ........        39.867         2.485         0.506         0.167
  BMP Removal ..............      4119.921       148.143        36.602        21.635
  Surface Runoff ...........       421.793        14.926         4.982         3.336
  Remaining Buildup ........     25649.240      1980.175       593.797       216.956
  Continuity Error (%) .....         0.306         0.168         0.138         0.239
  
  
  **************************        Volume        Volume
  Flow Routing Continuity        hectare-m      10^6 ltr
  **************************     ---------     ---------
  Dry Weather Inflow .......         0.000         0.000
  Wet Weather Inflow .......         0.180         1.796
  Groundwater Inflow .......         0.000         0.000
  RDII Inflow ..............         0.000         0.000
  External Inflow ..........         0.000         0.000
  External Outflow .........         0.144         1.444
  Flooding Loss ............         0.000         0.000
  Evaporation Loss .........         0.000         0.000
  Exfiltration Loss ........         0.000         0.000
  Initial Stored Volume ....         0.041         0.413
  Final Stored Volume ......         0.076         0.759
  Continuity Error (%) .....         0.301
  
  
  **************************           COD            TN         NH4-N            TP
  Quality Routing Continuity            kg            kg            kg            kg
  **************************    ----------    ----------    ----------    ----------
  Dry Weather Inflow .......         0.000         0.000         0.000         0.000
  Wet Weather Inflow .......       414.172        14.566         4.900         3.272
  Groundwater Inflow .......         0.000         0.000         0.000         0.000
  RDII Inflow ..............         0.000         0.000         0.000         0.000
  External Inflow ..........         0.000         0.000         0.000         0.000
  External Outflow .........       281.062         9.188         3.479         2.334
  Flooding Loss ............         0.000         0.000         0.000         0.000
  Exfiltration Loss ........         0.000         0.000         0.000         0.000
  Mass Reacted .............         0.000         0.000         0.000         0.000
  Initial Stored Mass ......         0.000         0.000         0.000         0.000
  Final Stored Mass ........       121.347         4.920         1.220         0.813
  Continuity Error (%) .....         2.840         3.140         4.121         3.828
  
  
  *************************
  Highest Continuity Errors
  *************************
  Node Y254 (100.00%)
  Node Y263 (100.00%)
  Node Y268 (100.00%)
  Node Y313 (100.00%)
  Node Y351 (100.00%)
  
  
  ***************************
  Time-Step Critical Elements
  ***************************
  Link L443 (68.44%)
  Link L466 (17.11%)
  Link L350 (4.05%)
  Link L390 (3.56%)
  Link L93 (1.68%)
  
  
  ********************************
  Highest Flow Instability Indexes
  ********************************
  Link L258 (8)
  Link L416 (6)
  Link L350 (5)
  Link L431 (5)
  Link L443 (5)
  
  
  *************************
  Routing Time Step Summary
  *************************
  Minimum Time Step           :     2.69 sec
  Average Time Step           :     5.03 sec
  Maximum Time Step           :    30.00 sec
  Percent in Steady State     :    -0.00
  Average Iterations per Step :     2.01
  Percent Not Converging      :     0.00
  
  
  ***************************
  Subcatchment Runoff Summary
  ***************************
  
  ------------------------------------------------------------------------------------------------------------------------------
                            Total      Total      Total      Total     Imperv       Perv      Total       Total     Peak  Runoff
                           Precip      Runon       Evap      Infil     Runoff     Runoff     Runoff      Runoff   Runoff   Coeff
  Subcatchment                 mm         mm         mm         mm         mm         mm         mm    10^6 ltr      CMS
  ------------------------------------------------------------------------------------------------------------------------------
  RD01_1_rdsq_out_no         9.63       0.00       0.00       0.00       9.43       0.00       9.43        0.01     0.01   0.979
  RD01_1_rdsq_out_with_PP       9.63     192.56       0.00       0.59       0.00       0.00      64.28        0.00     0.00   0.318
  RD01_1_rdsq_out_with_VS       9.63      11.44       0.00       9.93       0.00       0.00       1.56        0.00     0.00   0.074
  RD01_10_rdsq_out_no        9.63       0.00       0.00       0.00       9.39       0.00       9.39        0.03     0.01   0.975
  RD01_10_rdsq_out_with_PP       9.63     189.88       0.00       0.00     189.96       0.00     189.96        0.03     0.01   0.952
  RD01_10_rdsq_out_with_VS       9.63      34.46       0.00      10.17       0.00      34.46      34.76        0.03     0.01   0.788
  RD01_11_rdsq_out_no        9.63       0.00       0.00       0.00       9.41       0.00       9.41        0.02     0.01   0.977
  RD01_11_rdsq_out_with_PP       9.63     190.96       0.00       0.59       0.00       0.00      62.76        0.01     0.01   0.313
  RD01_11_rdsq_out_with_VS       9.63      11.22       0.00       9.89       0.00      11.21      11.22        0.01     0.01   0.538
  RD01_12_rdsq_out_no        9.63       0.00       0.00       0.00       9.38       0.00       9.38        0.04     0.02   0.974
  RD01_12_rdsq_out_with_PP       9.63     189.85       0.00       0.00     189.91       0.00     189.91        0.04     0.02   0.952
  RD01_12_rdsq_out_with_VS       9.63      34.40       0.00      10.13       0.00       0.00       4.21        0.00     0.00   0.096
  RD01_13_rdsq_out_no        9.63       0.00       0.00       0.00       9.39       0.00       9.39        0.04     0.02   0.975
  RD01_13_rdsq_out_with_PP       9.63     190.58       0.00       0.58       0.00       0.00      62.52        0.01     0.01   0.312
  RD01_13_rdsq_out_with_VS       9.63      11.18       0.00       9.93       0.00       0.00       0.44        0.00     0.00   0.021
  RD01_14_rdsq_out_no        9.63       0.00       0.00       0.00       9.41       0.00       9.41        0.02     0.01   0.977
  RD01_14_rdsq_out_with_PP       9.63     189.97       0.00       0.00     190.06       0.00     190.06        0.02     0.01   0.952
  RD01_14_rdsq_out_with_VS       9.63      34.54       0.00      10.14       0.00       0.00       6.63        0.00     0.00   0.150
  RD01_15_rdsq_out_no        9.63       0.00       0.00       0.00       9.42       0.00       9.42        0.02     0.01   0.978
  RD01_15_rdsq_out_with_PP       9.63     189.83       0.00       0.00     189.95       0.00     189.95        0.02     0.01   0.952
  RD01_15_rdsq_out_with_VS       9.63      34.55       0.00      10.17       0.00      34.55      35.01        0.02     0.01   0.792
  RD01_16_rdsq_out_no        9.63       0.00       0.00       0.00       9.43       0.00       9.43        0.02     0.01   0.979
  RD01_16_rdsq_out_with_PP       9.63     190.80       0.00       0.00     190.92       0.00     190.92        0.02     0.01   0.953
  RD01_16_rdsq_out_with_VS       9.63      34.57       0.00      10.17       0.00      34.57      35.03        0.02     0.01   0.792
  RD01_2_rdsq_out_no         9.63       0.00       0.00       0.00       9.43       0.00       9.43        0.01     0.01   0.979
  RD01_2_rdsq_out_with_PP       9.63     190.61       0.00       0.00     190.79       0.00     190.79        0.01     0.01   0.953
  RD01_2_rdsq_out_with_VS       9.63      34.57       0.00      10.17       0.00      34.56      35.24        0.01     0.01   0.797
  RD01_3_rdsq_out_no         9.63       0.00       0.00       0.00       9.39       0.00       9.39        0.05     0.03   0.975
  RD01_3_rdsq_out_with_PP       9.63     190.15       0.00       0.58       0.00       0.00      62.15        0.02     0.01   0.311
  RD01_3_rdsq_out_with_VS       9.63      11.13       0.00       9.92       0.00       0.00       0.31        0.00     0.00   0.015
  RD01_4_rdsq_out_no         9.63       0.00       0.00       0.00       9.38       0.00       9.38        0.06     0.03   0.974
  RD01_4_rdsq_out_with_PP       9.63     189.72       0.00       0.00     189.76       0.00     189.76        0.06     0.03   0.952
  RD01_4_rdsq_out_with_VS       9.63      34.39       0.00      10.13       0.00       0.00       2.79        0.00     0.00   0.063
  RD01_5_rdsq_out_no         9.63       0.00       0.00       0.00       9.42       0.00       9.42        0.02     0.01   0.978
  RD01_5_rdsq_out_with_PP       9.63     191.27       0.00       0.59       0.00       0.00      63.00        0.01     0.01   0.314
  RD01_5_rdsq_out_with_VS       9.63      11.26       0.00       9.89       0.00      11.25      11.26        0.01     0.01   0.539
  RD01_6_rdsq_out_no         9.63       0.00       0.00       0.00       9.41       0.00       9.41        0.02     0.01   0.977
  RD01_6_rdsq_out_with_PP       9.63     190.77       0.00       0.59       0.00       0.00      62.58        0.01     0.01   0.312
  RD01_6_rdsq_out_with_VS       9.63      11.21       0.00       9.93       0.00       0.00       0.68        0.00     0.00   0.033
  RD01_7_rdsq_out_no         9.63       0.00       0.00       0.00       9.38       0.00       9.38        0.02     0.01   0.974
  RD01_7_rdsq_out_with_PP       9.63     189.72       0.00       0.00     189.81       0.00     189.81        0.02     0.01   0.952
  RD01_7_rdsq_out_with_VS       9.63      34.40       0.00      10.17       0.00      34.40      34.76        0.02     0.01   0.789
  RD01_8_rdsq_out_no         9.63       0.00       0.00       0.00       9.39       0.00       9.39        0.02     0.01   0.975
  RD01_8_rdsq_out_with_PP       9.63     190.79       0.00       0.58       0.00       0.00      62.71        0.01     0.01   0.313
  RD01_8_rdsq_out_with_VS       9.63      11.20       0.00       9.93       0.00       0.00       0.73        0.00     0.00   0.035
  RD01_9_rdsq_out_no         9.63       0.00       0.00       0.00       9.40       0.00       9.40        0.03     0.02   0.976
  RD01_9_rdsq_out_with_PP       9.63     190.41       0.00       0.58       0.00       0.00      62.35        0.01     0.01   0.312
  RD01_9_rdsq_out_with_VS       9.63      11.17       0.00       9.93       0.00       0.00       0.59        0.00     0.00   0.028
  RD02_1_rdsq_out_no         9.63       0.00       0.00       0.00       9.40       0.00       9.40        0.04     0.02   0.976
  RD02_1_rdsq_out_with_PP       9.63     190.10       0.00       0.00     190.17       0.00     190.17        0.04     0.02   0.952
  RD02_1_rdsq_out_with_VS       9.63      34.46       0.00      10.13       0.00       0.00       3.97        0.00     0.00   0.090
  RD02_10_rdsq_out_no        9.63       0.00       0.00       0.00       9.40       0.00       9.40        0.06     0.03   0.976
  RD02_10_rdsq_out_with_PP       9.63     190.14       0.00       0.00     190.18       0.00     190.18        0.06     0.03   0.952
  RD02_10_rdsq_out_with_VS       9.63      34.47       0.00      10.14       0.00       0.00       3.04        0.00     0.00   0.069
  RD02_11_rdsq_out_no        9.63       0.00       0.00       0.00       9.39       0.00       9.39        0.04     0.02   0.975
  RD02_11_rdsq_out_with_PP       9.63     190.20       0.00       0.00     190.27       0.00     190.27        0.04     0.02   0.952
  RD02_11_rdsq_out_with_VS       9.63      34.45       0.00      10.13       0.00       0.00       4.53        0.00     0.00   0.103
  RD02_12_rdsq_out_no        9.63       0.00       0.00       0.00       9.39       0.00       9.39        0.04     0.02   0.975
  RD02_12_rdsq_out_with_PP       9.63     190.72       0.00       0.58       0.00       0.00      62.63        0.01     0.01   0.313
  RD02_12_rdsq_out_with_VS       9.63      11.20       0.00       9.93       0.00       0.00       0.45        0.00     0.00   0.022
  RD02_13_rdsq_out_no        9.63       0.00       0.00       0.00       9.41       0.00       9.41        0.02     0.01   0.977
  RD02_13_rdsq_out_with_PP       9.63     189.94       0.00       0.00     190.09       0.00     190.09        0.02     0.01   0.952
  RD02_13_rdsq_out_with_VS       9.63      34.60       0.00      10.14       0.00       0.00       9.36        0.00     0.00   0.212
  RD02_14_rdsq_out_no        9.63       0.00       0.00       0.00       9.41       0.00       9.41        0.02     0.01   0.977
  RD02_14_rdsq_out_with_PP       9.63     191.08       0.00       0.59       0.00       0.00      62.89        0.01     0.00   0.313
  RD02_14_rdsq_out_with_VS       9.63      11.24       0.00       9.93       0.00       0.00       0.94        0.00     0.00   0.045
  RD02_15_rdsq_out_no        9.63       0.00       0.00       0.00       9.43       0.00       9.43        0.02     0.01   0.979
  RD02_15_rdsq_out_with_PP       9.63     191.32       0.00       0.59       0.00       0.00      63.05        0.01     0.01   0.314
  RD02_15_rdsq_out_with_VS       9.63      11.29       0.00       9.93       0.00       0.00       0.75        0.00     0.00   0.036
  RD02_16_rdsq_out_no        9.63       0.00       0.00       0.00       9.42       0.00       9.42        0.02     0.01   0.978
  RD02_16_rdsq_out_with_PP       9.63     191.52       0.00       0.59       0.00       0.00      63.25        0.01     0.01   0.314
  RD02_16_rdsq_out_with_VS       9.63      11.31       0.00       9.93       0.00       0.00       0.71        0.00     0.00   0.034
  RD02_17_rdsq_out_no        9.63       0.00       0.00       0.00       9.41       0.00       9.41        0.03     0.02   0.977
  RD02_17_rdsq_out_with_PP       9.63     190.84       0.00       0.59       0.00       0.00      62.64        0.01     0.01   0.312
  RD02_17_rdsq_out_with_VS       9.63      11.21       0.00       9.89       0.00      11.21      11.21        0.01     0.01   0.538
  RD02_18_rdsq_out_no        9.63       0.00       0.00       0.00       9.44       0.00       9.44        0.01     0.01   0.980
  RD02_18_rdsq_out_with_PP       9.63     190.75       0.00       0.00     190.90       0.00     190.90        0.01     0.01   0.953
  RD02_18_rdsq_out_with_VS       9.63      34.69       0.00      10.14       0.00       0.00       9.59        0.00     0.00   0.216
  RD02_19_rdsq_out_no        9.63       0.00       0.00       0.00       9.41       0.00       9.41        0.02     0.01   0.977
  RD02_19_rdsq_out_with_PP       9.63     190.37       0.00       0.00     190.48       0.00     190.48        0.02     0.01   0.952
  RD02_19_rdsq_out_with_VS       9.63      34.55       0.00      10.14       0.00       0.00       7.11        0.00     0.00   0.161
  RD02_2_rdsq_out_no         9.63       0.00       0.00       0.00       9.39       0.00       9.39        0.05     0.02   0.975
  RD02_2_rdsq_out_with_PP       9.63     190.22       0.00       0.58       0.00       0.00      62.20        0.01     0.01   0.311
  RD02_2_rdsq_out_with_VS       9.63      11.14       0.00       9.93       0.00       0.00       0.36        0.00     0.00   0.018
  RD02_20_rdsq_out_no        9.63       0.00       0.00       0.00       9.41       0.00       9.41        0.02     0.01   0.977
  RD02_20_rdsq_out_with_PP       9.63     189.82       0.00       0.00     189.94       0.00     189.94        0.02     0.01   0.952
  RD02_20_rdsq_out_with_VS       9.63      34.57       0.00      10.14       0.00       0.00       7.41        0.00     0.00   0.168
  RD02_21_rdsq_out_no        9.63       0.00       0.00       0.00       9.39       0.00       9.39        0.03     0.01   0.975
  RD02_21_rdsq_out_with_PP       9.63     190.52       0.00       0.58       0.00       0.00      62.46        0.01     0.01   0.312
  RD02_21_rdsq_out_with_VS       9.63      11.18       0.00       9.93       0.00       0.00       0.61        0.00     0.00   0.030
  RD02_22_rdsq_out_no        9.63       0.00       0.00       0.00       9.39       0.00       9.39        0.03     0.02   0.975
  RD02_22_rdsq_out_with_PP       9.63     190.27       0.00       0.58       0.00       0.00      62.24        0.01     0.01   0.311
  RD02_22_rdsq_out_with_VS       9.63      11.15       0.00       9.93       0.00       0.00       0.56        0.00     0.00   0.027
  RD02_3_rdsq_out_no         9.63       0.00       0.00       0.00       9.40       0.00       9.40        0.03     0.02   0.976
  RD02_3_rdsq_out_with_PP       9.63     190.09       0.00       0.00     190.16       0.00     190.16        0.03     0.02   0.952
  RD02_3_rdsq_out_with_VS       9.63      34.49       0.00      10.14       0.00       0.00       4.72        0.00     0.00   0.107
  RD02_4_rdsq_out_no         9.63       0.00       0.00       0.00       9.39       0.00       9.39        0.04     0.02   0.975
  RD02_4_rdsq_out_with_PP       9.63     190.28       0.00       0.58       0.00       0.00      62.25        0.01     0.01   0.311
  RD02_4_rdsq_out_with_VS       9.63      11.15       0.00       9.93       0.00       0.00       0.46        0.00     0.00   0.022
  RD02_5_rdsq_out_no         9.63       0.00       0.00       0.00       9.41       0.00       9.41        0.03     0.01   0.977
  RD02_5_rdsq_out_with_PP       9.63     190.19       0.00       0.00     190.27       0.00     190.27        0.03     0.01   0.952
  RD02_5_rdsq_out_with_VS       9.63      34.54       0.00      10.14       0.00       0.00       5.95        0.00     0.00   0.135
  RD02_6_rdsq_out_no         9.63       0.00       0.00       0.00       9.44       0.00       9.44        0.03     0.01   0.980
  RD02_6_rdsq_out_with_PP       9.63     191.28       0.00       0.59       0.00       0.00      63.02        0.01     0.01   0.314
  RD02_6_rdsq_out_with_VS       9.63      11.29       0.00       9.89       0.00      11.28      11.29        0.01     0.01   0.540
  RD02_7_rdsq_out_no         9.63       0.00       0.00       0.00       9.43       0.00       9.43        0.02     0.01   0.979
  RD02_7_rdsq_out_with_PP       9.63     190.73       0.00       0.00     190.87       0.00     190.87        0.02     0.01   0.953
  RD02_7_rdsq_out_with_VS       9.63      34.61       0.00      10.17       0.00      34.60      35.06        0.02     0.01   0.793
  RD02_8_rdsq_out_no         9.63       0.00       0.00       0.00       9.42       0.00       9.42        0.03     0.01   0.978
  RD02_8_rdsq_out_with_PP       9.63     190.84       0.00       0.59       0.00       0.00      62.60        0.01     0.01   0.312
  RD02_8_rdsq_out_with_VS       9.63      11.22       0.00       9.93       0.00       0.00       0.67        0.00     0.00   0.032
  RD02_9_rdsq_out_no         9.63       0.00       0.00       0.00       9.39       0.00       9.39        0.05     0.03   0.975
  RD02_9_rdsq_out_with_PP       9.63     190.29       0.00       0.58       0.00       0.00      62.27        0.02     0.01   0.311
  RD02_9_rdsq_out_with_VS       9.63      11.15       0.00       9.93       0.00       0.00       0.31        0.00     0.00   0.015
  RD03_1_rdsq_out_no         9.63       0.00       0.00       0.00       9.39       0.00       9.39        0.05     0.03   0.975
  RD03_1_rdsq_out_with_PP       9.63     189.92       0.00       0.00     189.98       0.00     189.98        0.05     0.03   0.952
  RD03_1_rdsq_out_with_VS       9.63      34.46       0.00      10.13       0.00       0.00       3.39        0.00     0.00   0.077
  RD03_10_rdsq_out_no        9.63       0.00       0.00       0.00       9.38       0.00       9.38        0.04     0.02   0.974
  RD03_10_rdsq_out_with_PP       9.63     190.40       0.00       0.58       0.00       0.00      62.40        0.01     0.01   0.312
  RD03_10_rdsq_out_with_VS       9.63      11.16       0.00       9.93       0.00       0.00       0.39        0.00     0.00   0.019
  RD03_2_rdsq_out_no         9.63       0.00       0.00       0.00       9.39       0.00       9.39        0.06     0.03   0.975
  RD03_2_rdsq_out_with_PP       9.63     190.18       0.00       0.00     190.23       0.00     190.23        0.06     0.03   0.952
  RD03_2_rdsq_out_with_VS       9.63      34.45       0.00      10.14       0.00       0.00       2.95        0.00     0.00   0.067
  RD03_3_rdsq_out_no         9.63       0.00       0.00       0.00       9.36       0.00       9.36        0.06     0.03   0.971
  RD03_3_rdsq_out_with_PP       9.63     189.15       0.00       0.00     189.20       0.00     189.20        0.05     0.03   0.952
  RD03_3_rdsq_out_with_VS       9.63      34.31       0.00      10.14       0.00       0.00       3.02        0.00     0.00   0.069
  RD03_4_rdsq_out_no         9.63       0.00       0.00       0.00       9.35       0.00       9.35        0.06     0.03   0.971
  RD03_4_rdsq_out_with_PP       9.63     189.15       0.00       0.00     189.20       0.00     189.20        0.06     0.03   0.952
  RD03_4_rdsq_out_with_VS       9.63      34.29       0.00      10.13       0.00       0.00       3.01        0.00     0.00   0.068
  RD03_5_rdsq_out_no         9.63       0.00       0.00       0.00       9.40       0.00       9.40        0.04     0.02   0.976
  RD03_5_rdsq_out_with_PP       9.63     190.57       0.00       0.59       0.00       0.00      62.44        0.01     0.01   0.312
  RD03_5_rdsq_out_with_VS       9.63      11.18       0.00       9.93       0.00       0.00       0.47        0.00     0.00   0.023
  RD03_6_rdsq_out_no         9.63       0.00       0.00       0.00       9.41       0.00       9.41        0.04     0.02   0.977
  RD03_6_rdsq_out_with_PP       9.63     190.52       0.00       0.00     190.59       0.00     190.59        0.04     0.02   0.952
  RD03_6_rdsq_out_with_VS       9.63      34.50       0.00      10.13       0.00       0.00       4.19        0.00     0.00   0.095
  RD03_7_rdsq_out_no         9.63       0.00       0.00       0.00       9.41       0.00       9.41        0.04     0.02   0.977
  RD03_7_rdsq_out_with_PP       9.63     190.75       0.00       0.59       0.00       0.00      62.58        0.01     0.01   0.312
  RD03_7_rdsq_out_with_VS       9.63      11.20       0.00       9.93       0.00       0.00       0.44        0.00     0.00   0.021
  RD03_8_rdsq_out_no         9.63       0.00       0.00       0.00       9.40       0.00       9.40        0.04     0.02   0.976
  RD03_8_rdsq_out_with_PP       9.63     190.29       0.00       0.00     190.35       0.00     190.35        0.04     0.02   0.952
  RD03_8_rdsq_out_with_VS       9.63      34.50       0.00      10.14       0.00       0.00       3.90        0.00     0.00   0.088
  RD03_9_rdsq_out_no         9.63       0.00       0.00       0.00       9.40       0.00       9.40        0.04     0.02   0.976
  RD03_9_rdsq_out_with_PP       9.63     190.02       0.00       0.00     190.08       0.00     190.08        0.04     0.02   0.952
  RD03_9_rdsq_out_with_VS       9.63      34.47       0.00      10.14       0.00       0.00       4.06        0.00     0.00   0.092
  RD04_1_rdsq_out_no         9.63       0.00       0.00       0.00       9.43       0.00       9.43        0.02     0.01   0.979
  RD04_1_rdsq_out_with_PP       9.63     190.53       0.00       0.00     190.64       0.00     190.64        0.02     0.01   0.952
  RD04_1_rdsq_out_with_VS       9.63      34.65       0.00      10.14       0.00       0.00       6.37        0.00     0.00   0.144
  RD04_10_rdsq_out_no        9.63       0.00       0.00       0.00       9.41       0.00       9.41        0.03     0.02   0.977
  RD04_10_rdsq_out_with_PP       9.63     191.10       0.00       0.59       0.00       0.00      62.86        0.01     0.01   0.313
  RD04_10_rdsq_out_with_VS       9.63      11.23       0.00       9.89       0.00      11.23      11.24        0.01     0.01   0.539
  RD04_11_rdsq_out_no        9.63       0.00       0.00       0.00       9.41       0.00       9.41        0.05     0.03   0.977
  RD04_11_rdsq_out_with_PP       9.63     190.78       0.00       0.59       0.00       0.00      62.60        0.02     0.01   0.312
  RD04_11_rdsq_out_with_VS       9.63      11.21       0.00       9.93       0.00       0.00       0.33        0.00     0.00   0.016
  RD04_12_rdsq_out_no        9.63       0.00       0.00       0.00       9.39       0.00       9.39        0.06     0.03   0.975
  RD04_12_rdsq_out_with_PP       9.63     190.27       0.00       0.58       0.00       0.00      62.25        0.02     0.01   0.311
  RD04_12_rdsq_out_with_VS       9.63      11.15       0.00       9.93       0.00       0.00       0.29        0.00     0.00   0.014
  RD04_2_rdsq_out_no         9.63       0.00       0.00       0.00       9.40       0.00       9.40        0.05     0.02   0.976
  RD04_2_rdsq_out_with_PP       9.63     190.54       0.00       0.59       0.00       0.00      62.40        0.01     0.01   0.312
  RD04_2_rdsq_out_with_VS       9.63      11.18       0.00       9.92       0.00       0.00       0.37        0.00     0.00   0.018
  RD04_3_rdsq_out_no         9.63       0.00       0.00       0.00       9.39       0.00       9.39        0.05     0.02   0.975
  RD04_3_rdsq_out_with_PP       9.63     189.89       0.00       0.00     189.94       0.00     189.94        0.04     0.02   0.952
  RD04_3_rdsq_out_with_VS       9.63      34.45       0.00      10.14       0.00       0.00       3.69        0.00     0.00   0.084
  RD04_4_rdsq_out_no         9.63       0.00       0.00       0.00       9.39       0.00       9.39        0.04     0.02   0.975
  RD04_4_rdsq_out_with_PP       9.63     190.26       0.00       0.58       0.00       0.00      62.25        0.01     0.01   0.311
  RD04_4_rdsq_out_with_VS       9.63      11.14       0.00       9.93       0.00       0.00       0.38        0.00     0.00   0.018
  RD04_5_rdsq_out_no         9.63       0.00       0.00       0.00       9.41       0.00       9.41        0.06     0.03   0.977
  RD04_5_rdsq_out_with_PP       9.63     191.02       0.00       0.59       0.00       0.00      62.77        0.02     0.01   0.313
  RD04_5_rdsq_out_with_VS       9.63      11.23       0.00       9.93       0.00       0.00       0.29        0.00     0.00   0.014
  RD04_6_rdsq_out_no         9.63       0.00       0.00       0.00       9.41       0.00       9.41        0.05     0.03   0.977
  RD04_6_rdsq_out_with_PP       9.63     190.62       0.00       0.59       0.00       0.00      62.45        0.02     0.01   0.312
  RD04_6_rdsq_out_with_VS       9.63      11.19       0.00       9.93       0.00       0.00       0.34        0.00     0.00   0.016
  RD04_7_rdsq_out_no         9.63       0.00       0.00       0.00       9.40       0.00       9.40        0.04     0.02   0.976
  RD04_7_rdsq_out_with_PP       9.63     190.48       0.00       0.00     190.55       0.00     190.55        0.04     0.02   0.952
  RD04_7_rdsq_out_with_VS       9.63      34.50       0.00      10.13       0.00       0.00       4.23        0.00     0.00   0.096
  RD04_8_rdsq_out_no         9.63       0.00       0.00       0.00       9.38       0.00       9.38        0.03     0.02   0.974
  RD04_8_rdsq_out_with_PP       9.63     189.93       0.00       0.00     190.01       0.00     190.01        0.03     0.02   0.952
  RD04_8_rdsq_out_with_VS       9.63      34.42       0.00      10.14       0.00       0.00       5.10        0.00     0.00   0.116
  RD04_9_rdsq_out_no         9.63       0.00       0.00       0.00       9.41       0.00       9.41        0.03     0.02   0.977
  RD04_9_rdsq_out_with_PP       9.63     190.17       0.00       0.00     190.25       0.00     190.25        0.03     0.02   0.952
  RD04_9_rdsq_out_with_VS       9.63      34.52       0.00      10.17       0.00      34.52      34.79        0.03     0.02   0.788
  RD05_1_rdsq_out_no         9.63       0.00       0.00       0.00       9.42       0.00       9.42        0.04     0.02   0.978
  RD05_1_rdsq_out_with_PP       9.63     190.47       0.00       0.00     190.55       0.00     190.55        0.04     0.02   0.952
  RD05_1_rdsq_out_with_VS       9.63      34.56       0.00      10.13       0.00       0.00       4.55        0.00     0.00   0.103
  RD05_10_rdsq_out_no        9.63       0.00       0.00       0.00       9.43       0.00       9.43        0.02     0.01   0.979
  RD05_10_rdsq_out_with_PP       9.63     191.71       0.00       0.59       0.00       0.00      63.44        0.01     0.01   0.315
  RD05_10_rdsq_out_with_VS       9.63      11.35       0.00       9.93       0.00       0.00       0.79        0.00     0.00   0.037
  RD05_11_rdsq_out_no        9.63       0.00       0.00       0.00       9.45       0.00       9.45        0.01     0.01   0.981
  RD05_11_rdsq_out_with_PP       9.63     191.19       0.00       0.00     191.36       0.00     191.36        0.01     0.01   0.953
  RD05_11_rdsq_out_with_VS       9.63      34.73       0.00      10.14       0.00       0.00      10.98        0.00     0.00   0.247
  RD05_12_rdsq_out_no        9.63       0.00       0.00       0.00       9.45       0.00       9.45        0.01     0.01   0.982
  RD05_12_rdsq_out_with_PP       9.63     191.26       0.00       0.00     191.44       0.00     191.44        0.01     0.01   0.953
  RD05_12_rdsq_out_with_VS       9.63      34.75       0.00      10.14       0.00       0.00      10.99        0.00     0.00   0.248
  RD05_13_rdsq_out_no        9.63       0.00       0.00       0.00       9.41       0.00       9.41        0.04     0.02   0.977
  RD05_13_rdsq_out_with_PP       9.63     190.72       0.00       0.59       0.00       0.00      62.55        0.01     0.01   0.312
  RD05_13_rdsq_out_with_VS       9.63      11.20       0.00       9.93       0.00       0.00       0.45        0.00     0.00   0.022
  RD05_14_rdsq_out_no        9.63       0.00       0.00       0.00       9.42       0.00       9.42        0.04     0.02   0.978
  RD05_14_rdsq_out_with_PP       9.63     191.24       0.00       0.59       0.00       0.00      62.97        0.01     0.01   0.313
  RD05_14_rdsq_out_with_VS       9.63      11.26       0.00       9.93       0.00       0.00       0.42        0.00     0.00   0.020
  RD05_15_rdsq_out_no        9.63       0.00       0.00       0.00       9.42       0.00       9.42        0.02     0.01   0.978
  RD05_15_rdsq_out_with_PP       9.63     189.91       0.00       0.00     190.06       0.00     190.06        0.02     0.01   0.952
  RD05_15_rdsq_out_with_VS       9.63      34.58       0.00      10.14       0.00       0.00       9.18        0.00     0.00   0.208
  RD05_16_rdsq_out_no        9.63       0.00       0.00       0.00       9.40       0.00       9.40        0.02     0.01   0.976
  RD05_16_rdsq_out_with_PP       9.63     191.14       0.00       0.59       0.00       0.00      62.98        0.01     0.00   0.314
  RD05_16_rdsq_out_with_VS       9.63      11.24       0.00       9.93       0.00       0.00       0.98        0.00     0.00   0.047
  RD05_17_rdsq_out_no        9.63       0.00       0.00       0.00       9.40       0.00       9.40        0.02     0.01   0.976
  RD05_17_rdsq_out_with_PP       9.63     189.72       0.00       0.00     189.87       0.00     189.87        0.01     0.01   0.952
  RD05_17_rdsq_out_with_VS       9.63      34.53       0.00      10.14       0.00       0.00       9.40        0.00     0.00   0.213
  RD05_18_rdsq_out_no        9.63       0.00       0.00       0.00       9.41       0.00       9.41        0.02     0.01   0.977
  RD05_18_rdsq_out_with_PP       9.63     191.42       0.00       0.59       0.00       0.00      63.17        0.01     0.00   0.314
  RD05_18_rdsq_out_with_VS       9.63      11.27       0.00       9.93       0.00       0.00       1.02        0.00     0.00   0.049
  RD05_19_rdsq_out_no        9.63       0.00       0.00       0.00       9.43       0.00       9.43        0.02     0.01   0.979
  RD05_19_rdsq_out_with_PP       9.63     190.10       0.00       0.00     190.23       0.00     190.23        0.02     0.01   0.952
  RD05_19_rdsq_out_with_VS       9.63      34.60       0.00      10.14       0.00       0.00       9.02        0.00     0.00   0.204
  RD05_2_rdsq_out_no         9.63       0.00       0.00       0.00       9.36       0.00       9.36        0.04     0.02   0.972
  RD05_2_rdsq_out_with_PP       9.63     189.41       0.00       0.00     189.47       0.00     189.47        0.04     0.02   0.952
  RD05_2_rdsq_out_with_VS       9.63      34.35       0.00      10.14       0.00       0.00       4.10        0.00     0.00   0.093
  RD05_20_rdsq_out_no        9.63       0.00       0.00       0.00       9.41       0.00       9.41        0.02     0.01   0.977
  RD05_20_rdsq_out_with_PP       9.63     191.31       0.00       0.59       0.00       0.00      63.09        0.01     0.00   0.314
  RD05_20_rdsq_out_with_VS       9.63      11.25       0.00       9.89       0.00      11.25      11.26        0.01     0.00   0.539
  RD05_21_rdsq_out_no        9.63       0.00       0.00       0.00       9.43       0.00       9.43        0.01     0.01   0.979
  RD05_21_rdsq_out_with_PP       9.63     191.41       0.00       0.59       0.00       0.00      63.14        0.00     0.00   0.314
  RD05_21_rdsq_out_with_VS       9.63      11.30       0.00       9.89       0.00      11.29      11.31        0.00     0.00   0.540
  RD05_22_rdsq_out_no        9.63       0.00       0.00       0.00       9.44       0.00       9.44        0.01     0.01   0.980
  RD05_22_rdsq_out_with_PP       9.63     191.18       0.00       0.00     191.39       0.00     191.39        0.01     0.01   0.953
  RD05_22_rdsq_out_with_VS       9.63      34.66       0.00      10.17       0.00      34.65      35.39        0.01     0.01   0.799
  RD05_23_rdsq_out_no        9.63       0.00       0.00       0.00       9.42       0.00       9.42        0.02     0.01   0.978
  RD05_23_rdsq_out_with_PP       9.63     190.88       0.00       0.59       0.00       0.00      62.64        0.01     0.00   0.312
  RD05_23_rdsq_out_with_VS       9.63      11.22       0.00       9.89       0.00      11.21      11.23        0.01     0.00   0.538
  RD05_24_rdsq_out_no        9.63       0.00       0.00       0.00       9.42       0.00       9.42        0.02     0.01   0.978
  RD05_24_rdsq_out_with_PP       9.63     190.35       0.00       0.00     190.47       0.00     190.47        0.02     0.01   0.952
  RD05_24_rdsq_out_with_VS       9.63      34.60       0.00      10.14       0.00       0.00       8.53        0.00     0.00   0.193
  RD05_25_rdsq_out_no        9.63       0.00       0.00       0.00       9.43       0.00       9.43        0.01     0.01   0.979
  RD05_25_rdsq_out_with_PP       9.63     192.61       0.00       0.59       0.00       0.00      64.32        0.00     0.00   0.318
  RD05_25_rdsq_out_with_VS       9.63      11.43       0.00       9.89       0.00      11.42      11.44        0.00     0.00   0.543
  RD05_26_rdsq_out_no        9.63       0.00       0.00       0.00       9.44       0.00       9.44        0.01     0.01   0.980
  RD05_26_rdsq_out_with_PP       9.63     191.40       0.00       0.59       0.00       0.00      63.14        0.00     0.00   0.314
  RD05_26_rdsq_out_with_VS       9.63      11.30       0.00       9.89       0.00      11.30      11.31        0.00     0.00   0.540
  RD05_3_rdsq_out_no         9.63       0.00       0.00       0.00       9.40       0.00       9.40        0.04     0.02   0.976
  RD05_3_rdsq_out_with_PP       9.63     190.10       0.00       0.00     190.17       0.00     190.17        0.04     0.02   0.952
  RD05_3_rdsq_out_with_VS       9.63      34.48       0.00      10.14       0.00       0.00       3.99        0.00     0.00   0.091
  RD05_4_rdsq_out_no         9.63       0.00       0.00       0.00       9.36       0.00       9.36        0.04     0.02   0.972
  RD05_4_rdsq_out_with_PP       9.63     189.97       0.00       0.58       0.00       0.00      62.19        0.01     0.01   0.312
  RD05_4_rdsq_out_with_VS       9.63      11.10       0.00       9.92       0.00       0.00       0.40        0.00     0.00   0.019
  RD05_5_rdsq_out_no         9.63       0.00       0.00       0.00       9.46       0.00       9.46        0.02     0.01   0.982
  RD05_5_rdsq_out_with_PP       9.63     191.48       0.00       0.00     191.64       0.00     191.64        0.02     0.01   0.953
  RD05_5_rdsq_out_with_VS       9.63      34.69       0.00      10.17       0.00      34.68      35.15        0.02     0.01   0.793
  RD05_6_rdsq_out_no         9.63       0.00       0.00       0.00       9.42       0.00       9.42        0.02     0.01   0.978
  RD05_6_rdsq_out_with_PP       9.63     190.12       0.00       0.00     190.24       0.00     190.24        0.02     0.01   0.952
  RD05_6_rdsq_out_with_VS       9.63      34.57       0.00      10.17       0.00      34.57      35.04        0.02     0.01   0.793
  RD05_7_rdsq_out_no         9.63       0.00       0.00       0.00       9.46       0.00       9.46        0.01     0.01   0.982
  RD05_7_rdsq_out_with_PP       9.63     193.21       0.00       0.59       0.00       0.00      64.93        0.00     0.00   0.320
  RD05_7_rdsq_out_with_VS       9.63      11.56       0.00       9.93       0.00       0.00       1.54        0.00     0.00   0.073
  RD05_8_rdsq_out_no         9.63       0.00       0.00       0.00       9.45       0.00       9.45        0.01     0.01   0.982
  RD05_8_rdsq_out_with_PP       9.63     190.27       0.00       0.00     190.47       0.00     190.47        0.01     0.01   0.953
  RD05_8_rdsq_out_with_VS       9.63      34.78       0.00      10.14       0.00       0.00      12.45        0.00     0.00   0.280
  RD05_9_rdsq_out_no         9.63       0.00       0.00       0.00       9.42       0.00       9.42        0.02     0.01   0.978
  RD05_9_rdsq_out_with_PP       9.63     190.06       0.00       0.00     190.16       0.00     190.16        0.02     0.01   0.952
  RD05_9_rdsq_out_with_VS       9.63      34.59       0.00      10.14       0.00       0.00       6.94        0.00     0.00   0.157
  RD06_1_rdsq_out_no         9.63       0.00       0.00       0.00       9.44       0.00       9.44        0.02     0.01   0.980
  RD06_1_rdsq_out_with_PP       9.63     191.07       0.00       0.00     191.19       0.00     191.19        0.02     0.01   0.953
  RD06_1_rdsq_out_with_VS       9.63      34.65       0.00      10.17       0.00      34.64      35.03        0.02     0.01   0.791
  RD06_10_rdsq_out_no        9.63       0.00       0.00       0.00       9.39       0.00       9.39        0.04     0.02   0.975
  RD06_10_rdsq_out_with_PP       9.63     190.73       0.00       0.58       0.00       0.00      62.65        0.01     0.01   0.313
  RD06_10_rdsq_out_with_VS       9.63      11.19       0.00       9.92       0.00       0.00       0.45        0.00     0.00   0.021
  RD06_11_rdsq_out_no        9.63       0.00       0.00       0.00       9.40       0.00       9.40        0.03     0.02   0.976
  RD06_11_rdsq_out_with_PP       9.63     190.94       0.00       0.59       0.00       0.00      62.77        0.01     0.01   0.313
  RD06_11_rdsq_out_with_VS       9.63      11.22       0.00       9.89       0.00      11.21      11.22        0.01     0.01   0.538
  RD06_12_rdsq_out_no        9.63       0.00       0.00       0.00       9.39       0.00       9.39        0.03     0.02   0.975
  RD06_12_rdsq_out_with_PP       9.63     189.73       0.00       0.00     189.81       0.00     189.81        0.03     0.02   0.952
  RD06_12_rdsq_out_with_VS       9.63      34.47       0.00      10.14       0.00       0.00       5.64        0.00     0.00   0.128
  RD06_13_rdsq_out_no        9.63       0.00       0.00       0.00       9.43       0.00       9.43        0.02     0.01   0.979
  RD06_13_rdsq_out_with_PP       9.63     191.92       0.00       0.59       0.00       0.00      63.64        0.01     0.00   0.316
  RD06_13_rdsq_out_with_VS       9.63      11.35       0.00       9.89       0.00      11.35      11.36        0.01     0.00   0.541
  RD06_14_rdsq_out_no        9.63       0.00       0.00       0.00       9.43       0.00       9.43        0.02     0.01   0.979
  RD06_14_rdsq_out_with_PP       9.63     191.14       0.00       0.59       0.00       0.00      62.87        0.01     0.00   0.313
  RD06_14_rdsq_out_with_VS       9.63      11.26       0.00       9.93       0.00       0.00       0.84        0.00     0.00   0.040
  RD06_15_rdsq_out_no        9.63       0.00       0.00       0.00       9.39       0.00       9.39        0.04     0.02   0.975
  RD06_15_rdsq_out_with_PP       9.63     190.47       0.00       0.58       0.00       0.00      62.43        0.01     0.01   0.312
  RD06_15_rdsq_out_with_VS       9.63      11.17       0.00       9.92       0.00       0.00       0.38        0.00     0.00   0.018
  RD06_16_rdsq_out_no        9.63       0.00       0.00       0.00       9.39       0.00       9.39        0.06     0.03   0.975
  RD06_16_rdsq_out_with_PP       9.63     189.89       0.00       0.00     189.94       0.00     189.94        0.05     0.03   0.952
  RD06_16_rdsq_out_with_VS       9.63      34.44       0.00      10.14       0.00       0.00       3.07        0.00     0.00   0.070
  RD06_17_rdsq_out_no        9.63       0.00       0.00       0.00       9.40       0.00       9.40        0.03     0.02   0.976
  RD06_17_rdsq_out_with_PP       9.63     189.86       0.00       0.00     189.93       0.00     189.93        0.03     0.02   0.952
  RD06_17_rdsq_out_with_VS       9.63      34.48       0.00      10.17       0.00      34.47      34.71        0.03     0.02   0.787
  RD06_18_rdsq_out_no        9.63       0.00       0.00       0.00       9.41       0.00       9.41        0.03     0.02   0.977
  RD06_18_rdsq_out_with_PP       9.63     190.97       0.00       0.59       0.00       0.00      62.76        0.01     0.01   0.313
  RD06_18_rdsq_out_with_VS       9.63      11.22       0.00       9.89       0.00      11.22      11.23        0.01     0.01   0.538
  RD06_19_rdsq_out_no        9.63       0.00       0.00       0.00       9.41       0.00       9.41        0.02     0.01   0.977
  RD06_19_rdsq_out_with_PP       9.63     189.85       0.00       0.00     189.95       0.00     189.95        0.02     0.01   0.952
  RD06_19_rdsq_out_with_VS       9.63      34.57       0.00      10.14       0.00       0.00       7.14        0.00     0.00   0.162
  RD06_2_rdsq_out_no         9.63       0.00       0.00       0.00       9.44       0.00       9.44        0.02     0.01   0.980
  RD06_2_rdsq_out_with_PP       9.63     191.37       0.00       0.59       0.00       0.00      63.11        0.01     0.01   0.314
  RD06_2_rdsq_out_with_VS       9.63      11.30       0.00       9.89       0.00      11.30      11.30        0.01     0.01   0.540
  RD06_20_rdsq_out_no        9.63       0.00       0.00       0.00       9.42       0.00       9.42        0.02     0.01   0.978
  RD06_20_rdsq_out_with_PP       9.63     191.20       0.00       0.59       0.00       0.00      62.93        0.01     0.00   0.313
  RD06_20_rdsq_out_with_VS       9.63      11.24       0.00       9.89       0.00      11.24      11.25        0.01     0.00   0.539
  RD06_21_rdsq_out_no        9.63       0.00       0.00       0.00       9.42       0.00       9.42        0.02     0.01   0.978
  RD06_21_rdsq_out_with_PP       9.63     191.69       0.00       0.59       0.00       0.00      63.41        0.01     0.01   0.315
  RD06_21_rdsq_out_with_VS       9.63      11.32       0.00       9.93       0.00       0.00       0.74        0.00     0.00   0.035
  RD06_22_rdsq_out_no        9.63       0.00       0.00       0.00       9.42       0.00       9.42        0.02     0.01   0.978
  RD06_22_rdsq_out_with_PP       9.63     191.26       0.00       0.59       0.00       0.00      62.99        0.01     0.00   0.314
  RD06_22_rdsq_out_with_VS       9.63      11.25       0.00       9.89       0.00      11.25      11.26        0.01     0.00   0.539
  RD06_23_rdsq_out_no        9.63       0.00       0.00       0.00       9.42       0.00       9.42        0.03     0.02   0.978
  RD06_23_rdsq_out_with_PP       9.63     190.61       0.00       0.00     190.69       0.00     190.69        0.03     0.02   0.952
  RD06_23_rdsq_out_with_VS       9.63      34.55       0.00      10.17       0.00      34.55      34.82        0.03     0.02   0.788
  RD06_24_rdsq_out_no        9.63       0.00       0.00       0.00       9.41       0.00       9.41        0.03     0.01   0.977
  RD06_24_rdsq_out_with_PP       9.63     190.26       0.00       0.00     190.35       0.00     190.35        0.03     0.01   0.952
  RD06_24_rdsq_out_with_VS       9.63      34.56       0.00      10.14       0.00       0.00       6.03        0.00     0.00   0.137
  RD06_3_rdsq_out_no         9.63       0.00       0.00       0.00       9.40       0.00       9.40        0.03     0.01   0.976
  RD06_3_rdsq_out_with_PP       9.63     190.65       0.00       0.59       0.00       0.00      62.54        0.01     0.01   0.312
  RD06_3_rdsq_out_with_VS       9.63      11.19       0.00       9.93       0.00       0.00       0.62        0.00     0.00   0.030
  RD06_4_rdsq_out_no         9.63       0.00       0.00       0.00       9.39       0.00       9.39        0.03     0.02   0.975
  RD06_4_rdsq_out_with_PP       9.63     190.58       0.00       0.58       0.00       0.00      62.54        0.01     0.01   0.312
  RD06_4_rdsq_out_with_VS       9.63      11.17       0.00       9.89       0.00      11.17      11.18        0.01     0.01   0.537
  RD06_5_rdsq_out_no         9.63       0.00       0.00       0.00       9.40       0.00       9.40        0.03     0.02   0.976
  RD06_5_rdsq_out_with_PP       9.63     190.18       0.00       0.00     190.26       0.00     190.26        0.03     0.02   0.952
  RD06_5_rdsq_out_with_VS       9.63      34.49       0.00      10.17       0.00      34.49      34.74        0.03     0.02   0.787
  RD06_6_rdsq_out_no         9.63       0.00       0.00       0.00       9.42       0.00       9.42        0.02     0.01   0.978
  RD06_6_rdsq_out_with_PP       9.63     189.83       0.00       0.00     189.94       0.00     189.94        0.02     0.01   0.952
  RD06_6_rdsq_out_with_VS       9.63      34.55       0.00      10.17       0.00      34.55      34.99        0.02     0.01   0.792
  RD06_7_rdsq_out_no         9.63       0.00       0.00       0.00       9.39       0.00       9.39        0.04     0.02   0.975
  RD06_7_rdsq_out_with_PP       9.63     189.98       0.00       0.00     190.05       0.00     190.05        0.04     0.02   0.952
  RD06_7_rdsq_out_with_VS       9.63      34.45       0.00      10.14       0.00       0.00       4.43        0.00     0.00   0.100
  RD06_8_rdsq_out_no         9.63       0.00       0.00       0.00       9.41       0.00       9.41        0.03     0.02   0.977
  RD06_8_rdsq_out_with_PP       9.63     190.49       0.00       0.00     190.57       0.00     190.57        0.03     0.02   0.952
  RD06_8_rdsq_out_with_VS       9.63      34.51       0.00      10.17       0.00      34.50      34.75        0.03     0.02   0.787
  RD06_9_rdsq_out_no         9.63       0.00       0.00       0.00       9.41       0.00       9.41        0.02     0.01   0.977
  RD06_9_rdsq_out_with_PP       9.63     190.52       0.00       0.00     190.64       0.00     190.64        0.02     0.01   0.952
  RD06_9_rdsq_out_with_VS       9.63      34.54       0.00      10.14       0.00       0.00       8.71        0.00     0.00   0.197
  RD07_1_rdsq_out_no         9.63       0.00       0.00       0.00       9.38       0.00       9.38        0.09     0.05   0.974
  RD07_1_rdsq_out_with_PP       9.63     190.18       0.00       0.58       0.00       0.00      62.22        0.03     0.02   0.311
  RD07_1_rdsq_out_with_VS       9.63      11.13       0.00       9.93       0.00       0.00       0.18        0.00     0.00   0.009
  RD07_10_rdsq_out_no        9.63       0.00       0.00       0.00       9.40       0.00       9.40        0.03     0.02   0.976
  RD07_10_rdsq_out_with_PP       9.63     190.20       0.00       0.00     190.29       0.00     190.29        0.03     0.02   0.952
  RD07_10_rdsq_out_with_VS       9.63      34.52       0.00      10.14       0.00       0.00       5.14        0.00     0.00   0.116
  RD07_11_rdsq_out_no        9.63       0.00       0.00       0.00       9.40       0.00       9.40        0.05     0.02   0.976
  RD07_11_rdsq_out_with_PP       9.63     190.28       0.00       0.00     190.34       0.00     190.34        0.04     0.02   0.952
  RD07_11_rdsq_out_with_VS       9.63      34.46       0.00      10.13       0.00       0.00       3.71        0.00     0.00   0.084
  RD07_12_rdsq_out_no        9.63       0.00       0.00       0.00       9.42       0.00       9.42        0.03     0.02   0.978
  RD07_12_rdsq_out_with_PP       9.63     190.55       0.00       0.00     190.63       0.00     190.63        0.03     0.02   0.952
  RD07_12_rdsq_out_with_VS       9.63      34.58       0.00      10.14       0.00       0.00       4.98        0.00     0.00   0.113
  RD07_13_rdsq_out_no        9.63       0.00       0.00       0.00       9.40       0.00       9.40        0.03     0.02   0.976
  RD07_13_rdsq_out_with_PP       9.63     190.83       0.00       0.59       0.00       0.00      62.71        0.01     0.01   0.313
  RD07_13_rdsq_out_with_VS       9.63      11.21       0.00       9.93       0.00       0.00       0.48        0.00     0.00   0.023
  RD07_14_rdsq_out_no        9.63       0.00       0.00       0.00       9.40       0.00       9.40        0.03     0.02   0.976
  RD07_14_rdsq_out_with_PP       9.63     190.35       0.00       0.00     190.42       0.00     190.42        0.03     0.02   0.952
  RD07_14_rdsq_out_with_VS       9.63      34.48       0.00      10.17       0.00      34.48      34.74        0.03     0.02   0.787
  RD07_15_rdsq_out_no        9.63       0.00       0.00       0.00       9.39       0.00       9.39        0.05     0.03   0.975
  RD07_15_rdsq_out_with_PP       9.63     189.95       0.00       0.00     190.00       0.00     190.00        0.05     0.03   0.952
  RD07_15_rdsq_out_with_VS       9.63      34.44       0.00      10.13       0.00       0.00       3.27        0.00     0.00   0.074
  RD07_2_rdsq_out_no         9.63       0.00       0.00       0.00       9.39       0.00       9.39        0.04     0.02   0.975
  RD07_2_rdsq_out_with_PP       9.63     190.73       0.00       0.58       0.00       0.00      62.64        0.01     0.01   0.313
  RD07_2_rdsq_out_with_VS       9.63      11.20       0.00       9.93       0.00       0.00       0.42        0.00     0.00   0.020
  RD07_3_rdsq_out_no         9.63       0.00       0.00       0.00       9.39       0.00       9.39        0.05     0.03   0.975
  RD07_3_rdsq_out_with_PP       9.63     189.75       0.00       0.00     189.81       0.00     189.81        0.05     0.03   0.952
  RD07_3_rdsq_out_with_VS       9.63      34.44       0.00      10.14       0.00       0.00       3.54        0.00     0.00   0.080
  RD07_4_rdsq_out_no         9.63       0.00       0.00       0.00       9.40       0.00       9.40        0.04     0.02   0.976
  RD07_4_rdsq_out_with_PP       9.63     190.14       0.00       0.00     190.20       0.00     190.20        0.04     0.02   0.952
  RD07_4_rdsq_out_with_VS       9.63      34.49       0.00      10.14       0.00       0.00       3.79        0.00     0.00   0.086
  RD07_5_rdsq_out_no         9.63       0.00       0.00       0.00       9.43       0.00       9.43        0.03     0.02   0.979
  RD07_5_rdsq_out_with_PP       9.63     191.34       0.00       0.59       0.00       0.00      63.07        0.01     0.01   0.314
  RD07_5_rdsq_out_with_VS       9.63      11.29       0.00       9.93       0.00       0.00       0.61        0.00     0.00   0.029
  RD07_6_rdsq_out_no         9.63       0.00       0.00       0.00       9.41       0.00       9.41        0.03     0.02   0.977
  RD07_6_rdsq_out_with_PP       9.63     190.31       0.00       0.00     190.39       0.00     190.39        0.03     0.02   0.952
  RD07_6_rdsq_out_with_VS       9.63      34.53       0.00      10.14       0.00       0.00       5.23        0.00     0.00   0.118
  RD07_7_rdsq_out_no         9.63       0.00       0.00       0.00       9.39       0.00       9.39        0.03     0.02   0.975
  RD07_7_rdsq_out_with_PP       9.63     189.61       0.00       0.00     189.69       0.00     189.69        0.03     0.02   0.952
  RD07_7_rdsq_out_with_VS       9.63      34.44       0.00      10.17       0.00      34.44      34.73        0.03     0.02   0.788
  RD07_8_rdsq_out_no         9.63       0.00       0.00       0.00       9.39       0.00       9.39        0.04     0.02   0.974
  RD07_8_rdsq_out_with_PP       9.63     190.26       0.00       0.58       0.00       0.00      62.26        0.01     0.01   0.311
  RD07_8_rdsq_out_with_VS       9.63      11.14       0.00       9.92       0.00       0.00       0.41        0.00     0.00   0.020
  RD07_9_rdsq_out_no         9.63       0.00       0.00       0.00       9.40       0.00       9.40        0.02     0.01   0.976
  RD07_9_rdsq_out_with_PP       9.63     191.44       0.00       0.59       0.00       0.00      63.21        0.01     0.00   0.314
  RD07_9_rdsq_out_with_VS       9.63      11.28       0.00       9.93       0.00       0.00       0.92        0.00     0.00   0.044
  RD08_1_rdsq_out_no         9.63       0.00       0.00       0.00       9.39       0.00       9.39        0.04     0.02   0.975
  RD08_1_rdsq_out_with_PP       9.63     190.00       0.00       0.00     190.07       0.00     190.07        0.04     0.02   0.952
  RD08_1_rdsq_out_with_VS       9.63      34.42       0.00      10.13       0.00       0.00       4.18        0.00     0.00   0.095
  RD08_10_rdsq_out_no        9.63       0.00       0.00       0.00       9.42       0.00       9.42        0.02     0.01   0.978
  RD08_10_rdsq_out_with_PP       9.63     190.27       0.00       0.00     190.40       0.00     190.40        0.02     0.01   0.952
  RD08_10_rdsq_out_with_VS       9.63      34.54       0.00      10.17       0.00      34.54      35.02        0.02     0.01   0.793
  RD08_11_rdsq_out_no        9.63       0.00       0.00       0.00       9.42       0.00       9.42        0.01     0.01   0.978
  RD08_11_rdsq_out_with_PP       9.63     191.96       0.00       0.59       0.00       0.00      63.68        0.00     0.00   0.316
  RD08_11_rdsq_out_with_VS       9.63      11.33       0.00       9.89       0.00      11.33      11.34        0.00     0.00   0.541
  RD08_12_rdsq_out_no        9.63       0.00       0.00       0.00       9.44       0.00       9.44        0.01     0.01   0.980
  RD08_12_rdsq_out_with_PP       9.63     191.64       0.00       0.59       0.00       0.00      63.37        0.00     0.00   0.315
  RD08_12_rdsq_out_with_VS       9.63      11.32       0.00       9.89       0.00      11.32      11.33        0.00     0.00   0.541
  RD08_13_rdsq_out_no        9.63       0.00       0.00       0.00       9.43       0.00       9.43        0.01     0.01   0.979
  RD08_13_rdsq_out_with_PP       9.63     192.35       0.00       0.59       0.00       0.00      64.06        0.00     0.00   0.317
  RD08_13_rdsq_out_with_VS       9.63      11.41       0.00       9.93       0.00       0.00       1.34        0.00     0.00   0.064
  RD08_14_rdsq_out_no        9.63       0.00       0.00       0.00       9.43       0.00       9.43        0.01     0.01   0.979
  RD08_14_rdsq_out_with_PP       9.63     190.29       0.00       0.00     190.43       0.00     190.43        0.01     0.01   0.953
  RD08_14_rdsq_out_with_VS       9.63      34.59       0.00      10.17       0.00      34.59      35.15        0.01     0.01   0.795
  RD08_15_rdsq_out_no        9.63       0.00       0.00       0.00       9.46       0.00       9.46        0.01     0.01   0.982
  RD08_15_rdsq_out_with_PP       9.63     191.18       0.00       0.00     191.36       0.00     191.36        0.01     0.01   0.953
  RD08_15_rdsq_out_with_VS       9.63      34.75       0.00      10.14       0.00       0.00      11.25        0.00     0.00   0.253
  RD08_16_rdsq_out_no        9.63       0.00       0.00       0.00       9.44       0.00       9.44        0.02     0.01   0.980
  RD08_16_rdsq_out_with_PP       9.63     190.69       0.00       0.00     190.83       0.00     190.83        0.01     0.01   0.953
  RD08_16_rdsq_out_with_VS       9.63      34.63       0.00      10.17       0.00      34.62      35.14        0.01     0.01   0.794
  RD08_2_rdsq_out_no         9.63       0.00       0.00       0.00       9.37       0.00       9.37        0.04     0.02   0.973
  RD08_2_rdsq_out_with_PP       9.63     189.35       0.00       0.00     189.42       0.00     189.42        0.04     0.02   0.952
  RD08_2_rdsq_out_with_VS       9.63      34.36       0.00      10.13       0.00       0.00       4.13        0.00     0.00   0.094
  RD08_3_rdsq_out_no         9.63       0.00       0.00       0.00       9.32       0.00       9.32        0.14     0.07   0.968
  RD08_3_rdsq_out_with_PP       9.63     188.76       0.00       0.00     167.59       0.00     167.59        0.12     0.04   0.845
  RD08_3_rdsq_out_with_VS       9.63      30.27       0.00      10.12       0.00       0.00       1.01        0.00     0.00   0.025
  RD08_4_rdsq_out_no         9.63       0.00       0.00       0.00       9.41       0.00       9.41        0.02     0.01   0.977
  RD08_4_rdsq_out_with_PP       9.63     190.75       0.00       0.59       0.00       0.00      62.57        0.01     0.01   0.312
  RD08_4_rdsq_out_with_VS       9.63      11.20       0.00       9.89       0.00      11.20      11.21        0.01     0.01   0.538
  RD08_5_rdsq_out_no         9.63       0.00       0.00       0.00       9.41       0.00       9.41        0.02     0.01   0.977
  RD08_5_rdsq_out_with_PP       9.63     191.24       0.00       0.59       0.00       0.00      62.98        0.01     0.01   0.314
  RD08_5_rdsq_out_with_VS       9.63      11.26       0.00       9.93       0.00       0.00       0.76        0.00     0.00   0.036
  RD08_6_rdsq_out_no         9.63       0.00       0.00       0.00       9.40       0.00       9.40        0.04     0.02   0.976
  RD08_6_rdsq_out_with_PP       9.63     190.48       0.00       0.58       0.00       0.00      62.40        0.01     0.01   0.312
  RD08_6_rdsq_out_with_VS       9.63      11.17       0.00       9.93       0.00       0.00       0.45        0.00     0.00   0.021
  RD08_7_rdsq_out_no         9.63       0.00       0.00       0.00       9.43       0.00       9.43        0.02     0.01   0.979
  RD08_7_rdsq_out_with_PP       9.63     191.39       0.00       0.59       0.00       0.00      63.13        0.01     0.00   0.314
  RD08_7_rdsq_out_with_VS       9.63      11.29       0.00       9.89       0.00      11.29      11.30        0.01     0.00   0.540
  RD08_8_rdsq_out_no         9.63       0.00       0.00       0.00       9.42       0.00       9.42        0.02     0.01   0.979
  RD08_8_rdsq_out_with_PP       9.63     190.78       0.00       0.00     190.89       0.00     190.89        0.02     0.01   0.952
  RD08_8_rdsq_out_with_VS       9.63      34.61       0.00      10.14       0.00       0.00       7.19        0.00     0.00   0.162
  RD08_9_rdsq_out_no         9.63       0.00       0.00       0.00       9.42       0.00       9.42        0.02     0.01   0.978
  RD08_9_rdsq_out_with_PP       9.63     190.00       0.00       0.00     190.14       0.00     190.14        0.02     0.01   0.952
  RD08_9_rdsq_out_with_VS       9.63      34.53       0.00      10.17       0.00      34.53      35.04        0.01     0.01   0.793
  RD09_1_rdsq_out_no         9.63       0.00       0.00       0.00       9.42       0.00       9.42        0.02     0.01   0.979
  RD09_1_rdsq_out_with_PP       9.63     190.63       0.00       0.00     190.73       0.00     190.73        0.02     0.01   0.952
  RD09_1_rdsq_out_with_VS       9.63      34.57       0.00      10.17       0.00      34.57      34.92        0.02     0.01   0.790
  RD09_10_rdsq_out_no        9.63       0.00       0.00       0.00       9.42       0.00       9.42        0.02     0.01   0.979
  RD09_10_rdsq_out_with_PP       9.63     191.00       0.00       0.59       0.00       0.00      62.74        0.00     0.00   0.313
  RD09_10_rdsq_out_with_VS       9.63      11.25       0.00       9.93       0.00       0.00       1.05        0.00     0.00   0.050
  RD09_11_rdsq_out_no        9.63       0.00       0.00       0.00       9.41       0.00       9.41        0.03     0.02   0.977
  RD09_11_rdsq_out_with_PP       9.63     190.92       0.00       0.59       0.00       0.00      62.72        0.01     0.01   0.313
  RD09_11_rdsq_out_with_VS       9.63      11.22       0.00       9.93       0.00       0.00       0.59        0.00     0.00   0.028
  RD09_12_rdsq_out_no        9.63       0.00       0.00       0.00       9.42       0.00       9.42        0.03     0.02   0.978
  RD09_12_rdsq_out_with_PP       9.63     190.10       0.00       0.00     190.19       0.00     190.19        0.03     0.02   0.952
  RD09_12_rdsq_out_with_VS       9.63      34.55       0.00      10.17       0.00      34.54      34.84        0.03     0.02   0.789
  RD09_2_rdsq_out_no         9.63       0.00       0.00       0.00       9.41       0.00       9.41        0.03     0.01   0.977
  RD09_2_rdsq_out_with_PP       9.63     190.61       0.00       0.00     190.70       0.00     190.70        0.03     0.01   0.952
  RD09_2_rdsq_out_with_VS       9.63      34.51       0.00      10.17       0.00      34.51      34.83        0.03     0.01   0.789
  RD09_3_rdsq_out_no         9.63       0.00       0.00       0.00       9.44       0.00       9.44        0.03     0.02   0.980
  RD09_3_rdsq_out_with_PP       9.63     191.61       0.00       0.59       0.00       0.00      63.34        0.01     0.01   0.315
  RD09_3_rdsq_out_with_VS       9.63      11.33       0.00       9.93       0.00       0.00       0.62        0.00     0.00   0.029
  RD09_4_rdsq_out_no         9.63       0.00       0.00       0.00       9.42       0.00       9.42        0.03     0.02   0.978
  RD09_4_rdsq_out_with_PP       9.63     190.83       0.00       0.00     190.91       0.00     190.91        0.03     0.02   0.952
  RD09_4_rdsq_out_with_VS       9.63      34.58       0.00      10.14       0.00       0.00       5.25        0.00     0.00   0.119
  RD09_5_rdsq_out_no         9.63       0.00       0.00       0.00       9.38       0.00       9.38        0.06     0.03   0.974
  RD09_5_rdsq_out_with_PP       9.63     190.19       0.00       0.58       0.00       0.00      62.22        0.02     0.01   0.311
  RD09_5_rdsq_out_with_VS       9.63      11.13       0.00       9.93       0.00       0.00       0.30        0.00     0.00   0.014
  RD09_6_rdsq_out_no         9.63       0.00       0.00       0.00       9.39       0.00       9.39        0.06     0.03   0.974
  RD09_6_rdsq_out_with_PP       9.63     189.82       0.00       0.00     189.87       0.00     189.87        0.06     0.03   0.952
  RD09_6_rdsq_out_with_VS       9.63      34.42       0.00      10.13       0.00       0.00       2.98        0.00     0.00   0.068
  RD09_7_rdsq_out_no         9.63       0.00       0.00       0.00       9.44       0.00       9.44        0.02     0.01   0.980
  RD09_7_rdsq_out_with_PP       9.63     190.95       0.00       0.00     191.07       0.00     191.07        0.02     0.01   0.953
  RD09_7_rdsq_out_with_VS       9.63      34.66       0.00      10.17       0.00      34.66      35.08        0.02     0.01   0.792
  RD09_8_rdsq_out_no         9.63       0.00       0.00       0.00       9.42       0.00       9.42        0.02     0.01   0.978
  RD09_8_rdsq_out_with_PP       9.63     191.40       0.00       0.59       0.00       0.00      63.12        0.01     0.00   0.314
  RD09_8_rdsq_out_with_VS       9.63      11.27       0.00       9.89       0.00      11.27      11.28        0.01     0.00   0.540
  RD09_9_rdsq_out_no         9.63       0.00       0.00       0.00       9.44       0.00       9.44        0.02     0.01   0.980
  RD09_9_rdsq_out_with_PP       9.63     190.96       0.00       0.00     191.11       0.00     191.11        0.02     0.01   0.953
  RD09_9_rdsq_out_with_VS       9.63      34.66       0.00      10.14       0.00       0.00       9.29        0.00     0.00   0.210
  S01_10_green_no            9.63       0.00       0.00       9.63       0.00       0.00       0.00        0.00     0.00   0.000
  S01_10_green_with_BR       9.63       0.00       0.00       0.00       0.00       0.00       0.00        0.00     0.00   0.000
  S01_10_green_with_VS       9.63       0.00       0.00       9.63       0.00       0.00       0.00        0.00     0.00   0.000
  S01_10_roof_no             9.63       0.00       0.00       0.00       8.81       0.00       8.81        0.07     0.03   0.915
  S01_10_roof_with_GR        9.63      31.68       0.00       0.00       0.00       0.00       0.00        0.00     0.00   0.000
  S01_10_rdsq_in_no_PP       9.63       0.00       0.00       0.00       9.24       0.00       9.24        0.03     0.02   0.959
  S01_10_rdsq_in_with_PP       9.63       4.90       0.00       0.00       0.00       0.00       0.00        0.00     0.00   0.000
  S01_10_rdsq_out_no_PP       9.63       0.00       0.00       0.00       9.45       0.00       9.45        0.02     0.01   0.981
  S01_10_rdsq_out_with_PP       9.63       5.01       0.00       0.00       0.00       0.00       0.00        0.00     0.00   0.000
  S01_12_green_no            9.63       0.00       0.00       9.63       0.00       0.00       0.00        0.00     0.00   0.000
  S01_12_green_with_BR       9.63       0.00       0.00       0.00       0.00       0.00       0.00        0.00     0.00   0.000
  S01_12_green_with_VS       9.63       0.00       0.00       9.63       0.00       0.00       0.00        0.00     0.00   0.000
  S01_12_roof_no             9.63       0.00       0.00       0.00       8.66       0.00       8.66        0.13     0.05   0.899
  S01_12_roof_with_GR        9.63      31.08       0.00       0.00       0.00       0.00       0.00        0.00     0.00   0.000
  S01_12_rdsq_in_no_PP       9.63       0.00       0.00       0.00       9.08       0.00       9.08        0.09     0.04   0.943
  S01_12_rdsq_in_with_PP       9.63       4.81       0.00       0.00       0.00       0.00       0.00        0.00     0.00   0.000
  S01_13_green_no            9.63       0.00       0.00       9.63       0.00       0.00       0.00        0.00     0.00   0.000
  S01_13_green_with_BR       9.63       0.00       0.00       0.00       0.00       0.00       0.00        0.00     0.00   0.000
  S01_13_green_with_VS       9.63       0.00       0.00       9.63       0.00       0.00       0.00        0.00     0.00   0.000
  S01_13_roof_no             9.63       0.00       0.00       0.00       8.64       0.00       8.64        0.13     0.06   0.897
  S01_13_roof_with_GR        9.63      31.02       0.00       0.00       0.00       0.00       0.00        0.00     0.00   0.000
  S01_13_rdsq_in_no_PP       9.63       0.00       0.00       0.00       9.01       0.00       9.01        0.07     0.03   0.935
  S01_13_rdsq_in_with_PP       9.63       4.77       0.00       0.00       0.00       0.00       0.00        0.00     0.00   0.000
  S01_13_rdsq_out_no_PP       9.63       0.00       0.00       0.00       9.41       0.00       9.41        0.02     0.01   0.977
  S01_13_rdsq_out_with_PP       9.63       4.99       0.00       0.00       0.00       0.00       0.00        0.00     0.00   0.000
  S01_14_green_no            9.63       0.00       0.00       9.63       0.00       0.00       0.00        0.00     0.00   0.000
  S01_14_green_with_BR       9.63       0.00       0.00       0.00       0.00       0.00       0.00        0.00     0.00   0.000
  S01_14_green_with_VS       9.63       0.00       0.00       9.63       0.00       0.00       0.00        0.00     0.00   0.000
  S01_14_roof_no             9.63       0.00       0.00       0.00       8.76       0.00       8.76        0.09     0.04   0.909
  S01_14_roof_with_GR        9.63      31.47       0.00       0.00       0.00       0.00       0.00        0.00     0.00   0.000
  S01_14_rdsq_in_no_PP       9.63       0.00       0.00       0.00       9.18       0.00       9.18        0.05     0.02   0.954
  S01_14_rdsq_in_with_PP       9.63       4.86       0.00       0.00       0.00       0.00       0.00        0.00     0.00   0.000
  S01_15_green_no            9.63       0.00       0.00       9.63       0.00       0.00       0.00        0.00     0.00   0.000
  S01_15_green_with_BR       9.63       0.00       0.00       0.00       0.00       0.00       0.00        0.00     0.00   0.000
  S01_15_green_with_VS       9.63       0.00       0.00       9.56       0.00       0.00       0.01        0.00     0.00   0.001
  S01_15_roof_no             9.63       0.00       0.00       0.00       8.84       0.00       8.84        0.06     0.03   0.918
  S01_15_roof_with_GR        9.63      31.78       0.00       0.00       0.00       0.00       0.00        0.00     0.00   0.000
  S01_15_rdsq_in_no_PP       9.63       0.00       0.00       0.00       9.27       0.00       9.27        0.02     0.01   0.962
  S01_15_rdsq_in_with_PP       9.63       4.91       0.00       0.00       0.00       0.00       0.00        0.00     0.00   0.000
  S01_15_rdsq_out_no_PP       9.63       0.00       0.00       0.00       9.45       0.00       9.45        0.01     0.01   0.981
  S01_15_rdsq_out_with_PP       9.63       5.01       0.00       0.00       0.00       0.00       0.00        0.00     0.00   0.000
  S01_3_green_no             9.63       0.00       0.00       9.63       0.00       0.00       0.00        0.00     0.00   0.000
  S01_3_green_with_BR        9.63       0.00       0.00       0.00       0.00       0.00       0.00        0.00     0.00   0.000
  S01_3_green_with_VS        9.63       0.00       0.00       9.63       0.00       0.00       0.00        0.00     0.00   0.000
  S01_3_rdsq_in              9.63       0.00       0.00       0.00       8.91       0.00       8.91        0.16     0.07   0.925
  S01_4_green_no             9.63       0.00       0.00       9.63       0.00       0.00       0.00        0.00     0.00   0.000
  S01_4_green_with_BR        9.63       0.00       0.00       0.00       0.00       0.00       0.00        0.00     0.00   0.000
  S01_4_green_with_VS        9.63       0.00       0.00       9.62       0.00       0.00       0.00        0.00     0.00   0.000
  S01_4_roof_no              9.63       0.00       0.00       0.00       8.65       0.00       8.65        0.13     0.05   0.898
  S01_4_roof_with_GR         9.63      31.07       0.00       0.00       0.00       0.00       0.00        0.00     0.00   0.000
  S01_4_rdsq_in_no_PP        9.63       0.00       0.00       0.00       9.12       0.00       9.12        0.08     0.04   0.947
  S01_4_rdsq_in_with_PP       9.63       4.83       0.00       0.00       0.00       0.00       0.00        0.00     0.00   0.000
  S01_5_green_no             9.63       0.00       0.00       9.63       0.00       0.00       0.00        0.00     0.00   0.000
  S01_5_green_with_BR        9.63      22.87       0.00       0.00       0.00       0.00       0.00        0.00     0.00   0.000
  S01_5_green_with_VS        9.63       0.00       0.00       9.63       0.00       0.00       0.00        0.00     0.00   0.000
  S01_5_roof_no              9.63       0.00       0.00       0.00       8.95       0.00       8.95        0.03     0.01   0.930
  S01_5_roof_with_GR         9.63      32.21       0.00       0.00      32.22       0.00      32.22        0.03     0.01   0.770
  S01_5_rdsq_in_no_PP        9.63       0.00       0.00       0.00       9.26       0.00       9.26        0.02     0.01   0.962
  S01_5_rdsq_in_with_PP       9.63       4.91       0.00       0.00       0.00       0.00       0.00        0.00     0.00   0.000
  S01_6_green_no             9.63       0.00       0.00       9.63       0.00       0.00       0.00        0.00     0.00   0.000
  S01_6_green_with_BR        9.63       2.28       0.00       0.00       0.00       0.00       0.00        0.00     0.00   0.000
  S01_6_green_with_VS        9.63       2.30       0.00      11.22       0.00       0.00       0.03        0.00     0.00   0.003
  S01_6_roof_no              9.63       0.00       0.00       0.00       9.13       0.00       9.13        0.01     0.00   0.948
  S01_6_roof_with_GR         9.63      32.86       0.00       0.00      32.90       0.00      32.90        0.01     0.00   0.774
  S01_6_rdsq_in_no_PP        9.63       0.00       0.00       0.00       9.27       0.00       9.27        0.02     0.01   0.962
  S01_6_rdsq_in_with_PP       9.63       4.91       0.00       0.00       0.00       0.00       0.00        0.00     0.00   0.000
  S01_6_rdsq_out_no_PP       9.63       0.00       0.00       0.00       9.48       0.00       9.48        0.00     0.00   0.984
  S01_6_rdsq_out_with_PP       9.63       5.03       0.00       0.00       5.05       0.00       5.05        0.00     0.00   0.345
  S01_7_green_no             9.63       3.12       0.00      11.19       0.00       0.00       0.00        0.00     0.00   0.000
  S01_7_green_with_BR        9.63      12.47       0.00       0.01       0.00      12.47      12.47        0.01     0.01   0.564
  S01_7_green_with_VS        9.63      43.37       0.00      11.28       0.00       0.00      36.45        0.01     0.00   0.688
  S01_7_roof_no              9.63       0.00       0.00       0.00       9.08       0.00       9.08        0.01     0.01   0.943
  S01_7_roof_with_GR         9.63      32.69       0.00       0.00      32.71       0.00      32.71        0.01     0.01   0.773
  S01_7_rdsq_in_no_PP        9.63       0.00       0.00       0.00       9.34       0.00       9.34        0.01     0.01   0.969
  S01_7_rdsq_in_with_PP       9.63       4.95       0.00       0.00       0.00       0.00       0.00        0.00     0.00   0.000
  S01_8_green_no             9.63       0.00       0.00       9.63       0.00       0.00       0.00        0.00     0.00   0.000
  S01_8_green_with_BR        9.63      16.55       0.00       0.00       0.00       0.00       0.00        0.00     0.00   0.000
  S01_8_green_with_VS        9.63       0.00       0.00       9.53       0.00       0.00       0.01        0.00     0.00   0.001
  S01_8_roof_no              9.63       0.00       0.00       0.00       9.05       0.00       9.05        0.02     0.01   0.939
  S01_8_roof_with_GR         9.63      32.58       0.00       0.00      32.60       0.00      32.60        0.02     0.01   0.772
  S01_8_rdsq_in_no_PP        9.63       0.00       0.00       0.00       9.32       0.00       9.32        0.02     0.01   0.967
  S01_8_rdsq_in_with_PP       9.63       4.94       0.00       0.00       0.00       0.00       0.00        0.00     0.00   0.000
  S01_9_green_no             9.63       0.00       0.00       9.63       0.00       0.00       0.00        0.00     0.00   0.000
  S01_9_green_with_BR        9.63       0.00       0.00       0.00       0.00       0.00       0.00        0.00     0.00   0.000
  S01_9_green_with_VS        9.63       0.00       0.00       9.62       0.00       0.00       0.00        0.00     0.00   0.000
  S01_9_roof_no              9.63       0.00       0.00       0.00       8.77       0.00       8.77        0.08     0.03   0.911
  S01_9_roof_with_GR         9.63      31.52       0.00       0.00       0.00       0.00       0.00        0.00     0.00   0.000
  S01_9_rdsq_in_no_PP        9.63       0.00       0.00       0.00       9.11       0.00       9.11        0.05     0.02   0.946
  S01_9_rdsq_in_with_PP       9.63       4.82       0.00       0.00       0.00       0.00       0.00        0.00     0.00   0.000
  S01_9_rdsq_out_no_PP       9.63       0.00       0.00       0.00       9.42       0.00       9.42        0.02     0.01   0.978
  S01_9_rdsq_out_with_PP       9.63       5.00       0.00       0.00       0.00       0.00       0.00        0.00     0.00   0.000
  S02_1_green_no             9.63       0.00       0.00       9.63       0.00       0.00       0.00        0.00     0.00   0.000
  S02_1_green_with_BR        9.63       0.00       0.00       0.00       0.00       0.00       0.00        0.00     0.00   0.000
  S02_1_green_with_VS        9.63       0.00       0.00       9.62       0.00       0.00       0.00        0.00     0.00   0.000
  S02_1_roof_no              9.63       0.00       0.00       0.00       9.03       0.00       9.03        0.02     0.01   0.938
  S02_1_roof_with_GR         9.63      32.54       0.00       0.00       0.00       0.00       0.00        0.00     0.00   0.000
  S02_1_rdsq_in_no_PP        9.63       0.00       0.00       0.00       9.23       0.00       9.23        0.06     0.03   0.959
[...]
  L154                         0.102         0.003         0.001         0.001
  L155                         0.001         0.000         0.000         0.000
  L156                         0.000         0.000         0.000         0.000
  L157                         0.043         0.002         0.000         0.000
  L158                         0.000         0.000         0.000         0.000
  L159                         0.073         0.002         0.001         0.000
  L160                         0.621         0.020         0.004         0.003
  L161                         0.000         0.000         0.000         0.000
  L162                         0.068         0.002         0.000         0.000
  L163                         0.000         0.000         0.000         0.000
  L164                         0.000         0.000         0.000         0.000
  L165                         0.965         0.031         0.007         0.005
  L166                         0.000         0.000         0.000         0.000
  L167                         0.901         0.030         0.006         0.005
  L168                         0.882         0.028         0.006         0.005
  L169                         0.060         0.002         0.000         0.000
  L170                         0.000         0.000         0.000         0.000
  L171                         0.917         0.029         0.006         0.005
  L172                         0.016         0.000         0.000         0.000
  L173                         0.074         0.002         0.001         0.000
  L174                         0.842         0.027         0.006         0.005
  L175                         0.072         0.002         0.001         0.000
  L176                         0.816         0.026         0.006         0.005
  L177                         0.028         0.001         0.000         0.000
  L178                         0.458         0.015         0.003         0.003
  L179                         0.868         0.027         0.010         0.005
  L180                        13.121         0.340         0.120         0.060
  L181                        14.169         0.378         0.135         0.067
  L182                         0.029         0.001         0.000         0.000
  L184                         0.061         0.002         0.000         0.000
  L185                         0.665         0.022         0.005         0.004
  L186                         1.590         0.052         0.017         0.009
  L194                         0.000         0.000         0.000         0.000
  L198                         0.662         0.015         0.006         0.003
  L199                         4.331         0.101         0.039         0.018
  L200                         2.108         0.102         0.046         0.045
  L201                        12.035         0.317         0.109         0.056
  L202                         0.831         0.028         0.006         0.005
  L203                         5.636         0.147         0.051         0.026
  L204                         1.940         0.062         0.021         0.011
  L205                         0.930         0.030         0.010         0.005
  L206                         0.967         0.031         0.011         0.005
  L207                         0.048         0.002         0.000         0.000
  L208                         0.873         0.020         0.008         0.004
  L209                         3.179         0.083         0.030         0.015
  L210                         0.333         0.008         0.003         0.001
  L211                         0.000         0.000         0.000         0.000
  L217                         1.218         0.038         0.009         0.007
  L218                         1.645         0.053         0.012         0.009
  L219                         0.812         0.027         0.006         0.005
  L220                         0.000         0.000         0.000         0.000
  L222                         0.000         0.000         0.000         0.000
  L223                         7.214         0.190         0.066         0.033
  L224                         0.881         0.028         0.006         0.005
  L225                         1.810         0.057         0.019         0.010
  L226                         7.375         0.188         0.065         0.033
  L228                         0.000         0.000         0.000         0.000
  L229                         0.000         0.000         0.000         0.000
  L230                         1.547         0.049         0.017         0.008
  L231                         0.000         0.000         0.000         0.000
  L234                         0.060         0.002         0.000         0.000
  L235                         0.054         0.002         0.000         0.000
  L252                         0.000         0.000         0.000         0.000
  L254                         1.325         0.037         0.010         0.006
  L255                         0.076         0.002         0.001         0.000
  L256                         0.011         0.000         0.000         0.000
  L257                         2.522         0.060         0.023         0.011
  L258                         7.495         0.192         0.070         0.034
  L259                         7.659         0.196         0.071         0.035
  L260                         8.465         0.225         0.078         0.039
  L261                         0.967         0.033         0.007         0.006
  L262                         0.207         0.007         0.001         0.001
  L263                         0.001         0.000         0.000         0.000
  L267                        12.192         0.318         0.110         0.056
  L268                        10.855         0.283         0.099         0.050
  L269                        11.154         0.292         0.101         0.051
  L270                         0.663         0.021         0.005         0.004
  L271                         1.092         0.035         0.008         0.006
  L272                         0.796         0.025         0.006         0.004
  L273                         0.962         0.031         0.007         0.005
  L274                         0.021         0.001         0.000         0.000
  L275                         0.385         0.013         0.003         0.002
  L277                        22.776         0.581         0.213         0.103
  L278                        22.870         0.588         0.211         0.105
  L279                        14.590         0.393         0.134         0.069
  L280                        18.133         0.499         0.172         0.088
  L281                        11.355         0.289         0.103         0.051
  L282                         0.661         0.021         0.005         0.004
  L283                        12.978         0.332         0.118         0.059
  L284                         8.445         0.213         0.077         0.038
  L285                        10.005         0.264         0.092         0.046
  L286                         6.756         0.180         0.060         0.032
  L287                         6.798         0.181         0.061         0.032
  L288                         6.216         0.159         0.057         0.028
  L289                         6.597         0.167         0.060         0.030
  L290                         4.123         0.102         0.039         0.018
  L291                         0.003         0.000         0.000         0.000
  L292                         0.324         0.010         0.002         0.002
  L293                         0.007         0.000         0.000         0.000
  L297                         0.000         0.000         0.000         0.000
  L298                        18.024         0.465         0.166         0.082
  L299                         0.000         0.000         0.000         0.000
  L301                         4.022         0.130         0.041         0.023
  L303                         0.000         0.000         0.000         0.000
  L304                         0.000         0.000         0.000         0.000
  L305                         7.318         0.509         0.096         0.031
  L307                         0.000         0.000         0.000         0.000
  L308                         9.494         0.567         0.128         0.048
  L309                         0.000         0.000         0.000         0.000
  L310                         8.097         0.260         0.104         0.070
  L311                        11.820         0.288         0.106         0.052
  L312                         8.672         0.218         0.081         0.039
  L313                         3.767         0.245         0.050         0.018
  L314                         0.600         0.020         0.004         0.003
  L315                         2.057         0.067         0.020         0.011
  L316                        10.344         0.302         0.124         0.081
  L317                         0.891         0.027         0.006         0.005
  L318                         6.675         0.184         0.066         0.032
  L319                         6.554         0.188         0.065         0.033
  L320                         0.000         0.000         0.000         0.000
  L321                         0.000         0.000         0.000         0.000
  L322                         0.065         0.002         0.000         0.000
  L323                         1.611         0.052         0.018         0.009
  L324                         0.377         0.012         0.003         0.002
  L325                         0.333         0.010         0.002         0.002
  L326                         2.026         0.111         0.022         0.011
  L327                         0.775         0.034         0.007         0.004
  L328                         0.836         0.028         0.006         0.005
  L329                         0.343         0.010         0.002         0.002
  L330                         0.864         0.029         0.006         0.005
  L331                         0.044         0.001         0.000         0.000
  L332                         1.023         0.034         0.007         0.006
  L333                         0.077         0.002         0.001         0.000
  L334                         0.063         0.002         0.000         0.000
  L335                         0.051         0.002         0.000         0.000
  L336                         1.715         0.101         0.053         0.052
  L337                         1.716         0.099         0.052         0.051
  L338                         1.721         0.099         0.052         0.052
  L340                         0.201         0.012         0.002         0.001
  L341                         0.082         0.003         0.001         0.000
  L342                         0.075         0.002         0.001         0.000
  L343                         0.058         0.002         0.000         0.000
  L344                         0.991         0.032         0.007         0.006
  L345                         7.445         0.516         0.097         0.031
  L346                         0.984         0.032         0.007         0.005
  L347                         0.339         0.011         0.002         0.002
  L348                         8.179         0.208         0.076         0.037
  L349                         0.012         0.000         0.000         0.000
  L350                         1.044         0.024         0.009         0.004
  L351                         1.884         0.062         0.021         0.011
  L352                         7.143         0.186         0.066         0.033
  L353                         7.670         0.202         0.070         0.035
  L354                         4.201         0.136         0.046         0.024
  L355                         0.740         0.027         0.006         0.004
  L356                         8.804         0.220         0.080         0.039
  L357                         0.057         0.002         0.000         0.000
  L358                         0.029         0.001         0.000         0.000
  L359                         0.002         0.000         0.000         0.000
  L361                         7.506         0.196         0.069         0.035
  L362                         2.373         0.077         0.026         0.013
  L363                         0.074         0.002         0.001         0.000
  L364                        13.122         0.349         0.116         0.061
  L365                         0.009         0.000         0.000         0.000
  L366                         2.632         0.087         0.029         0.015
  L367                         0.076         0.002         0.001         0.000
  L368                         0.000         0.000         0.000         0.000
  L369                         0.087         0.002         0.001         0.000
  L370                         0.000         0.000         0.000         0.000
  L371                         0.000         0.000         0.000         0.000
  L372                         1.627         0.097         0.051         0.050
  L373                         0.068         0.002         0.000         0.000
  L374                         0.883         0.028         0.006         0.005
  L378                         0.009         0.001         0.000         0.000
  L379                         0.079         0.003         0.001         0.000
  L380                         2.006         0.066         0.022         0.011
  L381                         0.000         0.000         0.000         0.000
  L382                         1.908         0.140         0.031         0.011
  L383                         0.000         0.000         0.000         0.000
  L384                         0.000         0.000         0.000         0.000
  L385                         2.495         0.138         0.028         0.012
  L386                         7.623         0.236         0.076         0.038
  L387                         9.588         0.239         0.086         0.043
  L388                         1.929         0.064         0.021         0.011
  L389                        10.744         0.275         0.099         0.049
  L390                        12.706         0.334         0.117         0.059
  L391                         6.415         0.168         0.060         0.029
  L392                         1.820         0.061         0.020         0.011
  L393                         0.398         0.014         0.003         0.002
  L394                        14.548         0.363         0.137         0.065
  L395                        11.165         0.281         0.101         0.050
  L396                         0.005         0.000         0.000         0.000
  L397                         0.000         0.000         0.000         0.000
  L398                         0.000         0.000         0.000         0.000
  L399                         0.000         0.000         0.000         0.000
  L400                         1.609         0.053         0.011         0.009
  L401                         2.776         0.133         0.027         0.015
  L402                         0.000         0.000         0.000         0.000
  L403                         0.484         0.015         0.003         0.003
  L405                         0.000         0.000         0.000         0.000
  L406                         0.000         0.000         0.000         0.000
  L407                         0.156         0.006         0.001         0.001
  L408                         1.406         0.044         0.010         0.008
  L409                         0.723         0.022         0.005         0.004
  L410                         2.171         0.159         0.037         0.012
  L411                         0.000         0.000         0.000         0.000
  L412                         0.063         0.002         0.000         0.000
  L413                         0.000         0.000         0.000         0.000
  L414                         1.002         0.032         0.007         0.005
  L415                         0.007         0.000         0.000         0.000
  L416                         8.008         0.217         0.080         0.049
  L417                         1.807         0.050         0.012         0.009
  L418                         0.075         0.002         0.001         0.000
  L419                         0.000         0.000         0.000         0.000
  L420                         0.000         0.000         0.000         0.000
  L421                         0.000         0.000         0.000         0.000
  L422                         1.298         0.041         0.014         0.007
  L423                         0.000         0.000         0.000         0.000
  L424                         0.000         0.000         0.000         0.000
  L425                         2.025         0.124         0.025         0.010
  L426                         4.202         0.288         0.058         0.020
  L427                         0.000         0.000         0.000         0.000
  L428                         3.525         0.109         0.043         0.027
  L429                         1.111         0.036         0.012         0.006
  L430                         1.088         0.035         0.012         0.006
  L431                         3.308         0.196         0.043         0.017
  L432                         0.043         0.001         0.000         0.000
  L434                         1.289         0.041         0.014         0.007
  L435                         0.005         0.000         0.000         0.000
  L437                        13.206         0.333         0.118         0.059
  L439                        11.246         0.288         0.103         0.051
  L440                         0.000         0.000         0.000         0.000
  L441                         1.006         0.033         0.008         0.006
  L442                         0.882         0.030         0.006         0.005
  L443                         7.526         0.207         0.071         0.036
  L448                        10.149         0.262         0.093         0.046
  L449                         0.815         0.025         0.006         0.004
  L450                         0.806         0.026         0.006         0.005
  L451                         0.858         0.028         0.006         0.005
  L452                        12.273         0.328         0.111         0.057
  L453                         0.010         0.001         0.000         0.000
  L454                         0.000         0.000         0.000         0.000
  L457                         0.000         0.000         0.000         0.000
  L458                         0.000         0.000         0.000         0.000
  L464                        25.762         1.514         0.797         0.788
  L466                        23.132         1.235         0.636         0.625
  L462                         0.752         0.025         0.005         0.004
  L461                         0.014         0.000         0.000         0.000
  L463                         0.942         0.024         0.006         0.004
  L465                        10.710         0.394         0.174         0.157
  L459                         0.000         0.000         0.000         0.000
  L460                         0.000         0.000         0.000         0.000
  

  Analysis begun on:  Thu Dec 23 15:56:52 2021
  Analysis ended on:  Thu Dec 23 15:56:57 2021
  Total elapsed time: 00:00:05